**** Created by MC2: Version 2013.12.00.f on 2025/06/23, 08:27:51 

************************************************************************
* auCdl Netlist:
* 
* Library Name:  N16_FFC_CHAR_MB_BOS
* Top Cell Name: LEAFCELLS
* View Name:     schematic
* Netlisted on:  Jan  5 14:07:37 2017
************************************************************************

*.BIPOLAR
*.CAPA
*.DIOPERI
*.DIOAREA
*.EQUATION
*.SCALE METER
*.PARAM


*.PIN vss
.SUBCKT ndio_mac PLUS MINUS 
.ENDS

************************************************************************
* Library Name: TSMC  
* Cell Name:    nand2_svt_mac_pcell_0
* View Name:    schematic
************************************************************************

.SUBCKT S1ALLSVTSW2000X20_nand2_svt_mac_pcell_0 TSMC_1 TSMC_2 TSMC_3 TSMC_4 
+ TSMC_5 TSMC_6 TSMC_7 
*.PININFO  TSMC_1:I TSMC_2:I TSMC_3:I TSMC_4:I TSMC_5:I TSMC_6:I TSMC_7:O 
MM2 TSMC_7 TSMC_2 TSMC_5 TSMC_6 pch_svt_mac l=p_l nfin=p_nfin m=p_totalM 
MM1 TSMC_7 TSMC_1 TSMC_5 TSMC_6 pch_svt_mac l=p_l nfin=p_nfin m=p_totalM 
MM4 TSMC_8 TSMC_2 TSMC_3 TSMC_4 nch_svt_mac l=n_l nfin=n_nfin m=n_totalM 
MM3 TSMC_7 TSMC_1 TSMC_8 TSMC_4 nch_svt_mac l=n_l nfin=n_nfin m=n_totalM 
.ENDS

************************************************************************
* Library Name: TSMC    
* Cell Name:    nand2_ulvt_mac_pcell_0
* View Name:    schematic
************************************************************************

.SUBCKT S1ALLSVTSW2000X20_nand2_ulvt_mac_pcell_0 TSMC_1 TSMC_2 TSMC_3 TSMC_4 
+ TSMC_5 TSMC_6 TSMC_7 
*.PININFO  TSMC_1:I TSMC_2:I TSMC_3:I TSMC_4:I TSMC_5:I TSMC_6:I TSMC_7:O 
MM2 TSMC_7 TSMC_2 TSMC_5 TSMC_6 pch_ulvt_mac l=p_l nfin=p_nfin 
+ m=p_totalM 
MM1 TSMC_7 TSMC_1 TSMC_5 TSMC_6 pch_ulvt_mac l=p_l nfin=p_nfin 
+ m=p_totalM 
MM4 TSMC_8 TSMC_2 TSMC_3 TSMC_4 nch_ulvt_mac l=n_l nfin=n_nfin 
+ m=n_totalM 
MM3 TSMC_7 TSMC_1 TSMC_8 TSMC_4 nch_ulvt_mac l=n_l nfin=n_nfin 
+ m=n_totalM 
.ENDS

************************************************************************
* Library Name: tsmcN16
* Cell Name:    inv_lvt_mac_pcell_1
* View Name:    schematic
************************************************************************

.SUBCKT S1ALLSVTSW2000X20_inv_lvt_mac_pcell_1 TSMC_1 TSMC_2 TSMC_3 TSMC_4 
+ TSMC_5 TSMC_6 
*.PININFO  TSMC_1:I TSMC_2:I TSMC_3:I TSMC_5:I TSMC_6:I TSMC_4:O 
MM1 TSMC_4 TSMC_3 TSMC_5 TSMC_6 pch_lvt_mac l=p_l nfin=p_nfin m=p_totalM 
MM2 TSMC_4 TSMC_3 TSMC_1 TSMC_2 nch_lvt_mac l=n_l nfin=n_nfin m=n_totalM 
.ENDS

************************************************************************
* Library Name: TSMC  
* Cell Name:    inv_svt_mac_pcell_1
* View Name:    schematic
************************************************************************

.SUBCKT S1ALLSVTSW2000X20_inv_svt_mac_pcell_1 TSMC_1 TSMC_2 TSMC_3 TSMC_4 
+ TSMC_5 TSMC_6 
*.PININFO  TSMC_1:I TSMC_2:I TSMC_3:I TSMC_5:I TSMC_6:I TSMC_4:O 
MM1 TSMC_4 TSMC_3 TSMC_5 TSMC_6 pch_svt_mac l=p_l nfin=p_nfin m=p_totalM 
MM2 TSMC_4 TSMC_3 TSMC_1 TSMC_2 nch_svt_mac l=n_l nfin=n_nfin m=n_totalM 
.ENDS

************************************************************************
* Library Name: TSMC    
* Cell Name:    inv_ulvt_macN_pcell_1
* View Name:    schematic
************************************************************************

.SUBCKT S1ALLSVTSW2000X20_inv_ulvt_macN_pcell_1 TSMC_1 TSMC_2 TSMC_3 TSMC_4 
+ TSMC_5 TSMC_6 
*.PININFO  TSMC_1:I TSMC_2:I TSMC_3:I TSMC_5:I TSMC_6:I TSMC_4:O 
MM1 TSMC_4 TSMC_3 TSMC_5 TSMC_6 pch_svt_mac l=p_l nfin=p_nfin m=p_totalM 
MM2 TSMC_4 TSMC_3 TSMC_1 TSMC_2 nch_ulvt_mac l=n_l nfin=n_nfin 
+ m=n_totalM 
.ENDS

************************************************************************
* Library Name: TSMC    
* Cell Name:    inv_ulvt_mac_pcell_1
* View Name:    schematic
************************************************************************

.SUBCKT S1ALLSVTSW2000X20_inv_ulvt_mac_pcell_1 TSMC_1 TSMC_2 TSMC_3 TSMC_4 
+ TSMC_5 TSMC_6 
*.PININFO  TSMC_1:I TSMC_2:I TSMC_3:I TSMC_5:I TSMC_6:I TSMC_4:O 
MM1 TSMC_4 TSMC_3 TSMC_5 TSMC_6 pch_ulvt_mac l=p_l nfin=p_nfin 
+ m=p_totalM 
MM2 TSMC_4 TSMC_3 TSMC_1 TSMC_2 nch_ulvt_mac l=n_l nfin=n_nfin 
+ m=n_totalM 
.ENDS

************************************************************************
* Library Name: TSMC  
* Cell Name:    nand3_svt_mac_pcell_2
* View Name:    schematic
************************************************************************

.SUBCKT S1ALLSVTSW2000X20_nand3_svt_mac_pcell_2 TSMC_1 TSMC_2 TSMC_3 TSMC_4 
+ TSMC_5 TSMC_6 TSMC_7 TSMC_8 
*.PININFO  TSMC_1:I TSMC_2:I TSMC_3:I TSMC_4:I TSMC_5:I TSMC_6:I TSMC_7:I 
*.PININFO  TSMC_8:O 
MM3 TSMC_8 TSMC_3 TSMC_6 TSMC_7 pch_svt_mac l=p_l nfin=p_nfin m=p_totalM 
MM2 TSMC_8 TSMC_2 TSMC_6 TSMC_7 pch_svt_mac l=p_l nfin=p_nfin m=p_totalM 
MM1 TSMC_8 TSMC_1 TSMC_6 TSMC_7 pch_svt_mac l=p_l nfin=p_nfin m=p_totalM 
MM6 TSMC_9 TSMC_3 TSMC_4 TSMC_5 nch_svt_mac l=n_l nfin=n_nfin 
+ m=n_totalM 
MM5 TSMC_10 TSMC_2 TSMC_9 TSMC_5 nch_svt_mac l=n_l nfin=n_nfin 
+ m=n_totalM 
MM4 TSMC_8 TSMC_1 TSMC_10 TSMC_5 nch_svt_mac l=n_l nfin=n_nfin 
+ m=n_totalM 
.ENDS

************************************************************************
* Library Name: TSMC    
* Cell Name:    nand3_ulvt_mac_pcell_2
* View Name:    schematic
************************************************************************

.SUBCKT S1ALLSVTSW2000X20_nand3_ulvt_mac_pcell_2 TSMC_1 TSMC_2 TSMC_3 TSMC_4 
+ TSMC_5 TSMC_6 TSMC_7 TSMC_8 
*.PININFO  TSMC_1:I TSMC_2:I TSMC_3:I TSMC_4:I TSMC_5:I TSMC_6:I TSMC_7:I 
*.PININFO  TSMC_8:O 
MM3 TSMC_8 TSMC_3 TSMC_6 TSMC_7 pch_ulvt_mac l=p_l nfin=p_nfin 
+ m=p_totalM 
MM2 TSMC_8 TSMC_2 TSMC_6 TSMC_7 pch_ulvt_mac l=p_l nfin=p_nfin 
+ m=p_totalM 
MM1 TSMC_8 TSMC_1 TSMC_6 TSMC_7 pch_ulvt_mac l=p_l nfin=p_nfin 
+ m=p_totalM 
MM6 TSMC_9 TSMC_3 TSMC_4 TSMC_5 nch_ulvt_mac l=n_l nfin=n_nfin 
+ m=n_totalM 
MM5 TSMC_10 TSMC_2 TSMC_9 TSMC_5 nch_ulvt_mac l=n_l nfin=n_nfin 
+ m=n_totalM 
MM4 TSMC_8 TSMC_1 TSMC_10 TSMC_5 nch_ulvt_mac l=n_l nfin=n_nfin 
+ m=n_totalM 
.ENDS

************************************************************************
* Library Name: N16_FFC_CHAR_MB_BOS
* Cell Name:    PRECHARGE_M8
* View Name:    schematic
************************************************************************

.SUBCKT S1ALLSVTSW2000X20_PRECHARGE_M8 TSMC_1 TSMC_2 TSMC_3 VDDAI VDDI 
*.PININFO  TSMC_3:I TSMC_1:B TSMC_2:B VDDAI:B VDDI:B 
MP0_MIXV_USD VDDAI TSMC_3 TSMC_1 VDDI pch_svt_mac l=20n nfin=8 m=1 
MP5_MIXV_USD TSMC_1 TSMC_3 TSMC_2 VDDI pch_svt_mac l=20n nfin=3 m=1 
MP17_MIXV_USD TSMC_2 TSMC_3 VDDAI VDDI pch_svt_mac l=20n nfin=8 m=1 
.ENDS

************************************************************************
* Library Name: TSMC  
* Cell Name:    nor2_svt_mac_pcell_3
* View Name:    schematic
************************************************************************

.SUBCKT S1ALLSVTSW2000X20_nor2_svt_mac_pcell_3 TSMC_1 TSMC_2 TSMC_3 TSMC_4 
+ TSMC_5 TSMC_6 TSMC_7 
*.PININFO  TSMC_1:I TSMC_2:I TSMC_3:I TSMC_4:I TSMC_5:I TSMC_6:I TSMC_7:O 
MM2 TSMC_7 TSMC_2 TSMC_8 TSMC_6 pch_svt_mac l=p_l nfin=p_nfin m=p_totalM 
MM1 TSMC_8 TSMC_1 TSMC_5 TSMC_6 pch_svt_mac l=p_l nfin=p_nfin m=p_totalM 
MM4 TSMC_7 TSMC_2 TSMC_3 TSMC_4 nch_svt_mac l=n_l nfin=n_nfin m=n_totalM 
MM3 TSMC_7 TSMC_1 TSMC_3 TSMC_4 nch_svt_mac l=n_l nfin=n_nfin m=n_totalM 
.ENDS

************************************************************************
* Library Name: TSMC    
* Cell Name:    nor2_ulvt_mac_pcell_3
* View Name:    schematic
************************************************************************

.SUBCKT S1ALLSVTSW2000X20_nor2_ulvt_mac_pcell_3 TSMC_1 TSMC_2 TSMC_3 TSMC_4 
+ TSMC_5 TSMC_6 TSMC_7 
*.PININFO  TSMC_1:I TSMC_2:I TSMC_3:I TSMC_4:I TSMC_5:I TSMC_6:I TSMC_7:O 
MM2 TSMC_7 TSMC_2 TSMC_8 TSMC_6 pch_ulvt_mac l=p_l nfin=p_nfin 
+ m=p_totalM 
MM1 TSMC_8 TSMC_1 TSMC_5 TSMC_6 pch_ulvt_mac l=p_l nfin=p_nfin 
+ m=p_totalM 
MM4 TSMC_7 TSMC_2 TSMC_3 TSMC_4 nch_ulvt_mac l=n_l nfin=n_nfin 
+ m=n_totalM 
MM3 TSMC_7 TSMC_1 TSMC_3 TSMC_4 nch_ulvt_mac l=n_l nfin=n_nfin 
+ m=n_totalM 
.ENDS

************************************************************************
* Library Name: N16_FFC_CHAR_MB_BOS
* Cell Name:    TKBL_TRKPRE
* View Name:    schematic
************************************************************************

.SUBCKT S1ALLSVTSW2000X20_TKBL_TRKPRE TSMC_1 TSMC_2 TSMC_3 VDDAI VDDI VSSI 
+ TSMC_4 TSMC_5 
*.PININFO  TSMC_1:I TSMC_3:I TSMC_4:O TSMC_5:O TSMC_2:B VDDAI:B VDDI:B VSSI:B 
MM02 TSMC_5 TSMC_6 VSSI VSSI nch_svt_mac l=20n nfin=6 m=1 
MM01 TSMC_5 TSMC_6 VSSI VSSI nch_svt_mac l=20n nfin=12 m=1 
MM2 TSMC_7 TSMC_7 VSSI VSSI nch_svt_mac l=20n nfin=3 m=1 
MM3 TSMC_7 TSMC_6 VSSI VSSI nch_svt_mac l=20n nfin=3 m=1 
MM1 TSMC_3 TSMC_1 VSSI VSSI nch_svt_mac l=20n nfin=2 m=1 
MM7 TSMC_4 TSMC_7 VDDAI VDDI pch_svt_mac l=20n nfin=17 m=2 
MM8 TSMC_6 TSMC_6 VDDI VDDI pch_svt_mac l=20n nfin=3 m=1 
MP0 TSMC_2 TSMC_3 VDDI VDDI pch_svt_mac l=20n nfin=6 m=2 
MM4 TSMC_6 TSMC_7 VDDI VDDI pch_svt_mac l=20n nfin=3 m=1 
.ENDS

************************************************************************
* Library Name: TSMC  
* Cell Name:    nor3_svt_mac_pcell_4
* View Name:    schematic
************************************************************************

.SUBCKT S1ALLSVTSW2000X20_nor3_svt_mac_pcell_4 TSMC_1 TSMC_2 TSMC_3 TSMC_4 
+ TSMC_5 TSMC_6 TSMC_7 TSMC_8 
*.PININFO  TSMC_1:I TSMC_2:I TSMC_3:I TSMC_4:I TSMC_5:I TSMC_6:I TSMC_7:I 
*.PININFO  TSMC_8:O 
MM3 TSMC_8 TSMC_3 TSMC_9 TSMC_7 pch_svt_mac l=p_l nfin=p_nfin 
+ m=p_totalM 
MM2 TSMC_9 TSMC_2 TSMC_10 TSMC_7 pch_svt_mac l=p_l nfin=p_nfin 
+ m=p_totalM 
MM1 TSMC_10 TSMC_1 TSMC_6 TSMC_7 pch_svt_mac l=p_l nfin=p_nfin 
+ m=p_totalM 
MM6 TSMC_8 TSMC_3 TSMC_4 TSMC_5 nch_svt_mac l=n_l nfin=n_nfin 
+ m=n_totalM 
MM5 TSMC_8 TSMC_2 TSMC_4 TSMC_5 nch_svt_mac l=n_l nfin=n_nfin 
+ m=n_totalM 
MM4 TSMC_8 TSMC_1 TSMC_4 TSMC_5 nch_svt_mac l=n_l nfin=n_nfin 
+ m=n_totalM 
.ENDS

************************************************************************
* Library Name: TSMC  
* Cell Name:    tri_svt_mac_pcell_5
* View Name:    schematic
************************************************************************

.SUBCKT S1ALLSVTSW2000X20_tri_svt_mac_pcell_5 TSMC_1 TSMC_2 TSMC_3 TSMC_4 
+ TSMC_5 TSMC_6 TSMC_7 TSMC_8 
*.PININFO  TSMC_1:I TSMC_2:I TSMC_3:I TSMC_4:I TSMC_5:I TSMC_6:I TSMC_7:I 
*.PININFO  TSMC_8:O 
MM2 TSMC_8 TSMC_3 TSMC_9 TSMC_7 pch_svt_mac l=p_l nfin=p_nfin 
+ m=p_totalM 
MM1 TSMC_9 TSMC_1 TSMC_6 TSMC_7 pch_svt_mac l=p_l nfin=p_nfin 
+ m=p_totalM 
MM4 TSMC_10 TSMC_1 TSMC_4 TSMC_5 nch_svt_mac l=n_l nfin=n_nfin 
+ m=n_totalM 
MM3 TSMC_8 TSMC_2 TSMC_10 TSMC_5 nch_svt_mac l=n_l nfin=n_nfin 
+ m=n_totalM 
.ENDS

************************************************************************
* Library Name: N16_FFC_CHAR_MB_BOS
* Cell Name:    XDRV_WLP_S_M8
* View Name:    schematic
************************************************************************

.SUBCKT S1ALLSVTSW2000X20_XDRV_WLP_S_M8 TSMC_1 TSMC_2 TSMC_3 TSMC_4 TSMC_5 
+ TSMC_6 TSMC_7 TSMC_8 TSMC_9 VDDAI VDDHD VDDI VSSI TSMC_10 TSMC_11 TSMC_12 
+ TSMC_13 TSMC_14 
*.PININFO  TSMC_3:I TSMC_4:I TSMC_5:I TSMC_6:I TSMC_7:I TSMC_8:I 
*.PININFO  TSMC_9:I TSMC_14:I TSMC_1:O TSMC_2:O TSMC_10:O TSMC_11:O TSMC_12:O 
*.PININFO  TSMC_13:O VDDAI:B VDDHD:B VDDI:B VSSI:B 
MM35 TSMC_15 TSMC_7 TSMC_16 VSSI nch_svt_mac l=16.0n nfin=10 m=4 
MM34 TSMC_17 TSMC_6 TSMC_16 VSSI nch_svt_mac l=16.0n nfin=10 m=4 
MM32 TSMC_18 TSMC_5 TSMC_16 VSSI nch_svt_mac l=16.0n nfin=10 m=4 
MM28 TSMC_19 TSMC_4 TSMC_16 VSSI nch_svt_mac l=16.0n nfin=10 m=4 
MM36 TSMC_20 TSMC_9 VSSI VSSI nch_svt_mac l=20n nfin=2 m=1 
MN0_MIXV_ULVT TSMC_20 TSMC_21 TSMC_22 VSSI nch_ulvt_mac l=16.0n nfin=9 
+ m=3 
MN1_MIXV_ULVT TSMC_22 TSMC_23 VSSI VSSI nch_ulvt_mac l=16.0n nfin=9 m=3 
MM2 TSMC_1 TSMC_8 VSSI VSSI nch_svt_mac l=20n nfin=2 m=1 
MM0_MIXV_ULVT TSMC_16 TSMC_3 VSSI VSSI nch_ulvt_mac l=16.0n nfin=7 m=10 
MP0_MIXV_ULVT TSMC_20 TSMC_21 VDDHD VDDI pch_ulvt_mac l=16.0n nfin=10 
+ m=3 
MP1 TSMC_20 TSMC_23 VDDHD VDDI pch_svt_mac l=16.0n nfin=6 m=1 
MM16_MIXV_ULVT TSMC_17 TSMC_3 VDDHD VDDI pch_ulvt_mac l=16.0n nfin=6 
+ m=3 
MM9_MIXV_ULVT TSMC_18 TSMC_3 VDDHD VDDI pch_ulvt_mac l=16.0n nfin=6 m=3 
MM20_MIXV_ULVT TSMC_19 TSMC_3 VDDHD VDDI pch_ulvt_mac l=16.0n nfin=6 
+ m=3 
MM15_MIXV_ULVT TSMC_15 TSMC_7 VDDHD VDDI pch_ulvt_mac l=16.0n nfin=6 
+ m=1 
MM13_MIXV_ULVT TSMC_17 TSMC_6 VDDHD VDDI pch_ulvt_mac l=16.0n nfin=6 
+ m=1 
MM12_MIXV_ULVT TSMC_19 TSMC_4 VDDHD VDDI pch_ulvt_mac l=16.0n nfin=6 
+ m=1 
MM10_MIXV_ULVT TSMC_18 TSMC_5 VDDHD VDDI pch_ulvt_mac l=16.0n nfin=6 
+ m=1 
MM21_MIXV_ULVT TSMC_15 TSMC_3 VDDHD VDDI pch_ulvt_mac l=16.0n nfin=6 
+ m=3 
XI543_MIXV_ULVT_N VSSI VSSI TSMC_20 TSMC_1 VDDAI VDDI 
+ S1ALLSVTSW2000X20_inv_ulvt_macN_pcell_1 n_totalM=8 n_nfin=11 n_l=16.0n 
+ p_totalM=12 p_nfin=12 p_l=16.0n 
XI550 VSSI VSSI TSMC_24 TSMC_2 VDDHD VDDI 
+ S1ALLSVTSW2000X20_inv_svt_mac_pcell_1 n_totalM=1 n_nfin=2 n_l=20n p_totalM=1 
+ p_nfin=2 p_l=20n 
XI571_MIXV_ULVT VSSI VSSI TSMC_3 TSMC_21 VDDHD VDDI 
+ S1ALLSVTSW2000X20_inv_ulvt_mac_pcell_1 n_totalM=2 n_nfin=5 n_l=16.0n 
+ p_totalM=1 p_nfin=4 p_l=16.0n 
XI532_MIXV_ULVT_N VSSI VSSI TSMC_18 TSMC_11 VDDHD VDDI 
+ S1ALLSVTSW2000X20_inv_ulvt_macN_pcell_1 n_totalM=10 n_nfin=7 n_l=16.0n 
+ p_totalM=10 p_nfin=11 p_l=16.0n 
XI531_MIXV_ULVT_N VSSI VSSI TSMC_15 TSMC_13 VDDHD VDDI 
+ S1ALLSVTSW2000X20_inv_ulvt_macN_pcell_1 n_totalM=10 n_nfin=7 n_l=16.0n 
+ p_totalM=10 p_nfin=11 p_l=16.0n 
XI533_MIXV_ULVT_N VSSI VSSI TSMC_17 TSMC_12 VDDHD VDDI 
+ S1ALLSVTSW2000X20_inv_ulvt_macN_pcell_1 n_totalM=10 n_nfin=7 n_l=16.0n 
+ p_totalM=10 p_nfin=11 p_l=16.0n 
XI534_MIXV_ULVT_N VSSI VSSI TSMC_19 TSMC_10 VDDHD VDDI 
+ S1ALLSVTSW2000X20_inv_ulvt_macN_pcell_1 n_totalM=10 n_nfin=7 n_l=16.0n 
+ p_totalM=10 p_nfin=11 p_l=16.0n 
XI551 TSMC_20 TSMC_20 TSMC_20 VSSI VSSI VDDHD VDDI TSMC_24 
+ S1ALLSVTSW2000X20_tri_svt_mac_pcell_5 n_totalM=1 n_nfin=2 n_l=20n p_totalM=1 
+ p_nfin=2 p_l=20n 
XI577 TSMC_21 TSMC_21 TSMC_21 VSSI VSSI VDDHD VDDI TSMC_25 
+ S1ALLSVTSW2000X20_tri_svt_mac_pcell_5 n_totalM=1 n_nfin=3 n_l=20n p_totalM=1 
+ p_nfin=3 p_l=20n 
XI570 TSMC_25 TSMC_25 TSMC_25 VSSI VSSI VDDHD VDDI TSMC_23 
+ S1ALLSVTSW2000X20_tri_svt_mac_pcell_5 n_totalM=1 n_nfin=3 n_l=20n p_totalM=1 
+ p_nfin=3 p_l=20n 
.ENDS

************************************************************************
* Library Name: N16_FFC_CHAR_MB_BOS
* Cell Name:    XDRV_Y4_LG_M16
* View Name:    schematic
************************************************************************

.SUBCKT S1ALLSVTSW2000X20_XDRV_Y4_LG_M16 TSMC_1 VDDHD VDDI VSSI TSMC_2 TSMC_3 
+ TSMC_4 TSMC_5 TSMC_6 TSMC_7 TSMC_8 TSMC_9 TSMC_10 
*.PININFO  TSMC_1:I TSMC_2:I TSMC_3:I TSMC_4:I TSMC_5:I TSMC_6:I TSMC_7:O 
*.PININFO  TSMC_8:O TSMC_9:O TSMC_10:O VDDHD:B VDDI:B VSSI:B 
MN3<3> TSMC_10 TSMC_1 VSSI VSSI nch_svt_mac l=20n nfin=2 m=1 
MN3<2> TSMC_9 TSMC_1 VSSI VSSI nch_svt_mac l=20n nfin=2 m=1 
MN3<1> TSMC_8 TSMC_1 VSSI VSSI nch_svt_mac l=20n nfin=2 m=1 
MN3<0> TSMC_7 TSMC_1 VSSI VSSI nch_svt_mac l=20n nfin=2 m=1 
MN21 TSMC_11 TSMC_2 VSSI VSSI nch_svt_mac l=20n nfin=12 m=1 
MP31 TSMC_11 TSMC_2 VDDHD VDDI pch_svt_mac l=20n nfin=2 m=1 
MM17<3> TSMC_12 TSMC_2 VDDHD VDDI pch_svt_mac l=20n nfin=2 m=1 
MM17<2> TSMC_13 TSMC_2 VDDHD VDDI pch_svt_mac l=20n nfin=2 m=1 
MM17<1> TSMC_14 TSMC_2 VDDHD VDDI pch_svt_mac l=20n nfin=2 m=1 
MM17<0> TSMC_15 TSMC_2 VDDHD VDDI pch_svt_mac l=20n nfin=2 m=1 
XI407<3> VSSI VSSI TSMC_12 TSMC_7 VDDHD VDDI 
+ S1ALLSVTSW2000X20_inv_svt_mac_pcell_1 n_totalM=6 n_nfin=10 n_l=20n p_totalM=6 
+ p_nfin=10 p_l=20n 
XI407<2> VSSI VSSI TSMC_13 TSMC_8 VDDHD VDDI 
+ S1ALLSVTSW2000X20_inv_svt_mac_pcell_1 n_totalM=6 n_nfin=10 n_l=20n p_totalM=6 
+ p_nfin=10 p_l=20n 
XI407<1> VSSI VSSI TSMC_14 TSMC_9 VDDHD VDDI 
+ S1ALLSVTSW2000X20_inv_svt_mac_pcell_1 n_totalM=6 n_nfin=10 n_l=20n p_totalM=6 
+ p_nfin=10 p_l=20n 
XI407<0> VSSI VSSI TSMC_15 TSMC_10 VDDHD VDDI 
+ S1ALLSVTSW2000X20_inv_svt_mac_pcell_1 n_totalM=6 n_nfin=10 n_l=20n p_totalM=6 
+ p_nfin=10 p_l=20n 
XNA2<3> TSMC_11 VSSI TSMC_3 TSMC_12 VDDHD VDDI 
+ S1ALLSVTSW2000X20_inv_svt_mac_pcell_1 n_totalM=2 n_nfin=4 n_l=20n p_totalM=2 
+ p_nfin=4 p_l=20n 
XNA2<2> TSMC_11 VSSI TSMC_4 TSMC_13 VDDHD VDDI 
+ S1ALLSVTSW2000X20_inv_svt_mac_pcell_1 n_totalM=2 n_nfin=4 n_l=20n p_totalM=2 
+ p_nfin=4 p_l=20n 
XNA2<1> TSMC_11 VSSI TSMC_5 TSMC_14 VDDHD VDDI 
+ S1ALLSVTSW2000X20_inv_svt_mac_pcell_1 n_totalM=2 n_nfin=4 n_l=20n p_totalM=2 
+ p_nfin=4 p_l=20n 
XNA2<0> TSMC_11 VSSI TSMC_6 TSMC_15 VDDHD VDDI 
+ S1ALLSVTSW2000X20_inv_svt_mac_pcell_1 n_totalM=2 n_nfin=4 n_l=20n p_totalM=2 
+ p_nfin=4 p_l=20n 
.ENDS

************************************************************************
* Library Name: N16_FFC_CHAR_MB_BOS
* Cell Name:    XDRV_Y10_NAND3
* View Name:    schematic
************************************************************************

.SUBCKT S1ALLSVTSW2000X20_XDRV_Y10_NAND3 TSMC_1 VDDHD VDDI VSSI TSMC_2 TSMC_3 
+ TSMC_4 TSMC_5 TSMC_6 TSMC_7 TSMC_8 
*.PININFO  TSMC_1:I TSMC_2:I TSMC_3:I TSMC_4:I TSMC_5:I TSMC_6:I TSMC_7:O 
*.PININFO  TSMC_8:O VDDHD:B VDDI:B VSSI:B 
MM19 TSMC_8 TSMC_9 VSSI VSSI nch_svt_mac l=20n nfin=10 m=4 
MM11 TSMC_10 TSMC_6 VSSI VSSI nch_svt_mac l=20n nfin=10 m=3 
MM13 TSMC_8 TSMC_1 VSSI VSSI nch_svt_mac l=20n nfin=2 m=1 
MM21 TSMC_11 TSMC_2 TSMC_10 VSSI nch_svt_mac l=20n nfin=10 m=3 
MM15 TSMC_11 TSMC_3 TSMC_10 VSSI nch_svt_mac l=20n nfin=10 m=3 
MM2 TSMC_12 TSMC_4 TSMC_11 VSSI nch_svt_mac l=20n nfin=11 m=1 
MN3 TSMC_7 TSMC_1 VSSI VSSI nch_svt_mac l=20n nfin=2 m=1 
MM5 TSMC_7 TSMC_12 VSSI VSSI nch_svt_mac l=20n nfin=10 m=4 
MM14 TSMC_9 TSMC_5 TSMC_11 VSSI nch_svt_mac l=20n nfin=11 m=1 
MM23 TSMC_13 TSMC_2 VDDHD VDDI pch_svt_mac l=20n nfin=5 m=1 
MM22 TSMC_14 TSMC_2 VDDHD VDDI pch_svt_mac l=20n nfin=5 m=1 
MM20 TSMC_8 TSMC_9 VDDHD VDDI pch_svt_mac l=20n nfin=10 m=10 
MM18 TSMC_9 TSMC_6 VDDHD VDDI pch_svt_mac l=20n nfin=5 m=1 
MM16 TSMC_9 TSMC_5 VDDHD VDDI pch_svt_mac l=20n nfin=5 m=1 
MM3 TSMC_12 TSMC_3 TSMC_13 VDDI pch_svt_mac l=20n nfin=5 m=1 
MM17 TSMC_9 TSMC_3 TSMC_14 VDDI pch_svt_mac l=20n nfin=5 m=1 
MM12 TSMC_12 TSMC_6 VDDHD VDDI pch_svt_mac l=20n nfin=5 m=1 
MM8 TSMC_12 TSMC_4 VDDHD VDDI pch_svt_mac l=20n nfin=5 m=1 
MM4 TSMC_7 TSMC_12 VDDHD VDDI pch_svt_mac l=20n nfin=10 m=10 
.ENDS

************************************************************************
* Library Name: N16_FFC_CHAR_MB_BOS
* Cell Name:    XDRV_Y10_NAND2
* View Name:    schematic
************************************************************************

.SUBCKT S1ALLSVTSW2000X20_XDRV_Y10_NAND2 TSMC_1 VDDHD VDDI VSSI TSMC_2 TSMC_3 
+ TSMC_4 
*.PININFO  TSMC_1:I TSMC_2:I TSMC_3:I TSMC_4:O VDDHD:B VDDI:B VSSI:B 
MM11_MIXV_ULVT TSMC_5 TSMC_2 VSSI VSSI nch_ulvt_mac l=16.0n nfin=11 m=1 
MM2_MIXV_ULVT TSMC_6 TSMC_3 TSMC_5 VSSI nch_ulvt_mac l=16.0n nfin=11 m=1 
MN3 TSMC_4 TSMC_1 VSSI VSSI nch_svt_mac l=20n nfin=2 m=1 
MM5 TSMC_4 TSMC_6 VSSI VSSI nch_svt_mac l=20n nfin=10 m=5 
MM3_MIXV_ULVT TSMC_6 TSMC_2 VDDHD VDDI pch_ulvt_mac l=16.0n nfin=4 m=1 
MM8_MIXV_ULVT TSMC_6 TSMC_3 VDDHD VDDI pch_ulvt_mac l=16.0n nfin=4 m=1 
MM4 TSMC_4 TSMC_6 VDDHD VDDI pch_svt_mac l=20n nfin=10 m=6 
.ENDS

************************************************************************
* Library Name: N16_FFC_CHAR_MB_BOS
* Cell Name:    XDRV_READ_NOR
* View Name:    schematic
************************************************************************

.SUBCKT S1ALLSVTSW2000X20_XDRV_READ_NOR TSMC_1 TSMC_2 TSMC_3 VDDHD VDDI VSSI 
+ TSMC_4 
*.PININFO  TSMC_1:I TSMC_2:I TSMC_4:I TSMC_3:O VDDHD:B VDDI:B VSSI:B 
MN1 TSMC_5 TSMC_2 VSSI VSSI nch_svt_mac l=20n nfin=2 m=1 
XI428 VSSI VSSI TSMC_1 TSMC_6 VDDHD VDDI 
+ S1ALLSVTSW2000X20_inv_svt_mac_pcell_1 n_totalM=1 n_nfin=3 n_l=20n p_totalM=1 
+ p_nfin=3 p_l=20n 
XI426 VSSI VSSI TSMC_5 TSMC_3 VDDI VDDI 
+ S1ALLSVTSW2000X20_inv_svt_mac_pcell_1 n_totalM=6 n_nfin=10 n_l=20n p_totalM=6 
+ p_nfin=10 p_l=20n 
XI631_MIXV_ULVT TSMC_4 TSMC_6 VSSI VSSI VDDHD VDDI TSMC_5 
+ S1ALLSVTSW2000X20_nor2_ulvt_mac_pcell_3 n_totalM=1 n_nfin=8 n_l=16.0n 
+ p_totalM=1 p_nfin=8 p_l=16.0n 
.ENDS

************************************************************************
* Library Name: N16_FFC_CHAR_MB_BOS
* Cell Name:    XDRV_Y10
* View Name:    schematic
************************************************************************

.SUBCKT S1ALLSVTSW2000X20_XDRV_Y10 TSMC_1 VDDHD VDDI VSSI TSMC_2 TSMC_3 TSMC_4 
+ TSMC_5 TSMC_6 
*.PININFO  TSMC_1:I TSMC_2:I TSMC_3:I TSMC_4:I TSMC_5:O TSMC_6:O VDDHD:B VDDI:B 
*.PININFO  VSSI:B 
MN21 TSMC_7 TSMC_2 VSSI VSSI nch_svt_mac l=20n nfin=8 m=1 
MM2 TSMC_8 TSMC_3 TSMC_7 VSSI nch_svt_mac l=20n nfin=10 m=1 
MM0 TSMC_6 TSMC_1 VSSI VSSI nch_svt_mac l=20n nfin=2 m=1 
MN3 TSMC_5 TSMC_1 VSSI VSSI nch_svt_mac l=20n nfin=2 m=1 
MM7 TSMC_6 TSMC_9 VSSI VSSI nch_svt_mac l=20n nfin=10 m=6 
MM5 TSMC_5 TSMC_8 VSSI VSSI nch_svt_mac l=20n nfin=10 m=6 
MM10 TSMC_9 TSMC_4 TSMC_7 VSSI nch_svt_mac l=20n nfin=10 m=1 
MM9 TSMC_9 TSMC_4 VDDHD VDDI pch_svt_mac l=20n nfin=5 m=1 
MP31 TSMC_7 TSMC_2 VDDHD VDDI pch_svt_mac l=20n nfin=2 m=1 
MM3 TSMC_8 TSMC_2 VDDHD VDDI pch_svt_mac l=20n nfin=5 m=1 
MM6 TSMC_6 TSMC_9 VDDHD VDDI pch_svt_mac l=20n nfin=10 m=6 
MM11 TSMC_9 TSMC_2 VDDHD VDDI pch_svt_mac l=20n nfin=5 m=1 
MM8 TSMC_8 TSMC_3 VDDHD VDDI pch_svt_mac l=20n nfin=5 m=1 
MM4 TSMC_5 TSMC_8 VDDHD VDDI pch_svt_mac l=20n nfin=10 m=6 
.ENDS

************************************************************************
* Library Name: N16_FFC_CHAR_MB_BOS
* Cell Name:    LCTRL_M8
* View Name:    schematic
************************************************************************

.SUBCKT S1ALLSVTSW2000X20_LCTRL_M8 TSMC_1 TSMC_2 TSMC_3 TSMC_4 TSMC_5 TSMC_6 
+ TSMC_7 TSMC_8 TSMC_9 TSMC_10 TSMC_11 TSMC_12 TSMC_13 TSMC_14 TSMC_15 TSMC_16 
+ TSMC_17 TSMC_18 TSMC_19 TSMC_20 TSMC_21 TSMC_22 TSMC_23 TSMC_24 TSMC_25 
+ TSMC_26 TSMC_27 TSMC_28 TSMC_29 TSMC_30 TSMC_31 TSMC_32 VDDHD VDDI VSSI 
+ TSMC_33 TSMC_34 TSMC_35 TSMC_36 TSMC_37 TSMC_38 TSMC_39 TSMC_40 
*.PININFO  TSMC_1:I TSMC_2:I TSMC_3:I TSMC_4:I TSMC_5:I TSMC_6:I 
*.PININFO  TSMC_7:I TSMC_8:I TSMC_9:I TSMC_10:I TSMC_11:I TSMC_12:I 
*.PININFO  TSMC_29:I TSMC_30:I TSMC_33:I TSMC_36:I TSMC_37:I TSMC_38:I 
*.PININFO  TSMC_13:O 
*.PININFO  TSMC_14:O TSMC_15:O TSMC_16:O TSMC_17:O 
*.PININFO  TSMC_18:O TSMC_19:O TSMC_20:O TSMC_21:O 
*.PININFO  TSMC_22:O TSMC_23:O TSMC_24:O TSMC_25:O 
*.PININFO  TSMC_26:O TSMC_27:O TSMC_28:O TSMC_31:O TSMC_32:O 
*.PININFO  TSMC_34:O TSMC_35:O TSMC_39:O TSMC_40:O VDDHD:B VDDI:B VSSI:B 
XNOR0_MIXV_ULVT TSMC_4 TSMC_3 VSSI VSSI VDDHD VDDI TSMC_41 
+ S1ALLSVTSW2000X20_nor2_ulvt_mac_pcell_3 n_totalM=1 n_nfin=3 n_l=16.0n 
+ p_totalM=1 p_nfin=3 p_l=16.0n 
XXDRV_Y4_D<0> TSMC_29 VDDHD VDDI VSSI TSMC_42 TSMC_5 TSMC_6 TSMC_7 
+ TSMC_8 TSMC_13 TSMC_14 TSMC_15 TSMC_16 
+ S1ALLSVTSW2000X20_XDRV_Y4_LG_M16 
XXDRV_Y4_D<1> TSMC_29 VDDHD VDDI VSSI TSMC_42 TSMC_9 TSMC_10 TSMC_11 
+ TSMC_12 TSMC_17 TSMC_18 TSMC_19 TSMC_20 
+ S1ALLSVTSW2000X20_XDRV_Y4_LG_M16 
XXDRV_Y4_U<0> TSMC_29 VDDHD VDDI VSSI TSMC_43 TSMC_5 TSMC_6 TSMC_7 
+ TSMC_8 TSMC_21 TSMC_22 TSMC_23 TSMC_24 
+ S1ALLSVTSW2000X20_XDRV_Y4_LG_M16 
XXDRV_Y4_U<1> TSMC_29 VDDHD VDDI VSSI TSMC_43 TSMC_9 TSMC_10 TSMC_11 
+ TSMC_12 TSMC_25 TSMC_26 TSMC_27 TSMC_28 
+ S1ALLSVTSW2000X20_XDRV_Y4_LG_M16 
XXDRV_W TSMC_29 VDDHD VDDI VSSI TSMC_3 TSMC_4 TSMC_37 TSMC_38 TSMC_33 
+ TSMC_34 TSMC_35 S1ALLSVTSW2000X20_XDRV_Y10_NAND3 
XXDRV_R TSMC_29 VDDHD VDDI VSSI TSMC_44 TSMC_30 TSMC_31 
+ S1ALLSVTSW2000X20_XDRV_Y10_NAND2 
XXDRV_READ TSMC_44 TSMC_29 TSMC_32 VDDHD VDDI VSSI TSMC_36 
+ S1ALLSVTSW2000X20_XDRV_READ_NOR 
XXDRV_YL TSMC_29 VDDHD VDDI VSSI TSMC_44 TSMC_37 TSMC_38 TSMC_39 TSMC_40 
+ S1ALLSVTSW2000X20_XDRV_Y10 
XD3_BUF_MIXV_ULVT<1> VSSI VSSI TSMC_4 TSMC_45 VDDHD VDDI 
+ S1ALLSVTSW2000X20_inv_ulvt_mac_pcell_1 n_totalM=1 n_nfin=5 n_l=16.0n 
+ p_totalM=1 p_nfin=3 p_l=16.0n 
XD3_BUF_MIXV_ULVT<0> VSSI VSSI TSMC_3 TSMC_46 VDDHD VDDI 
+ S1ALLSVTSW2000X20_inv_ulvt_mac_pcell_1 n_totalM=1 n_nfin=5 n_l=16.0n 
+ p_totalM=1 p_nfin=3 p_l=16.0n 
XI252_MIXV_ULVT<1> VSSI VSSI TSMC_45 TSMC_43 VDDHD VDDI 
+ S1ALLSVTSW2000X20_inv_ulvt_mac_pcell_1 n_totalM=2 n_nfin=3 n_l=16.0n 
+ p_totalM=2 p_nfin=8 p_l=16.0n 
XI252_MIXV_ULVT<0> VSSI VSSI TSMC_46 TSMC_42 VDDHD VDDI 
+ S1ALLSVTSW2000X20_inv_ulvt_mac_pcell_1 n_totalM=2 n_nfin=3 n_l=16.0n 
+ p_totalM=2 p_nfin=8 p_l=16.0n 
XINV4 VSSI VSSI TSMC_47 TSMC_48 VDDHD VDDI 
+ S1ALLSVTSW2000X20_inv_svt_mac_pcell_1 n_totalM=1 n_nfin=2 n_l=20n p_totalM=1 
+ p_nfin=2 p_l=20n 
XINV5 VSSI VSSI TSMC_48 TSMC_49 VDDHD VDDI 
+ S1ALLSVTSW2000X20_inv_svt_mac_pcell_1 n_totalM=1 n_nfin=2 n_l=20n p_totalM=1 
+ p_nfin=2 p_l=20n 
XINV0 VSSI VSSI TSMC_41 TSMC_50 VDDHD VDDI 
+ S1ALLSVTSW2000X20_inv_svt_mac_pcell_1 n_totalM=1 n_nfin=2 n_l=20n p_totalM=1 
+ p_nfin=2 p_l=20n 
XINV3 VSSI VSSI TSMC_51 TSMC_47 VDDHD VDDI 
+ S1ALLSVTSW2000X20_inv_svt_mac_pcell_1 n_totalM=1 n_nfin=2 n_l=20n p_totalM=1 
+ p_nfin=2 p_l=20n 
XINV2 VSSI VSSI TSMC_52 TSMC_51 VDDHD VDDI 
+ S1ALLSVTSW2000X20_inv_svt_mac_pcell_1 n_totalM=1 n_nfin=2 n_l=20n p_totalM=1 
+ p_nfin=2 p_l=20n 
XINV1 VSSI VSSI TSMC_50 TSMC_52 VDDHD VDDI 
+ S1ALLSVTSW2000X20_inv_svt_mac_pcell_1 n_totalM=1 n_nfin=2 n_l=20n p_totalM=1 
+ p_nfin=2 p_l=20n 
XNAND0_MIXV_ULVT TSMC_52 TSMC_41 VSSI VSSI VDDHD VDDI TSMC_44 
+ S1ALLSVTSW2000X20_nand2_ulvt_mac_pcell_0 n_totalM=1 n_nfin=6 n_l=16.0n 
+ p_totalM=1 p_nfin=8 p_l=16.0n 
.ENDS

************************************************************************
* Library Name: N16_FFC_CHAR_MB_BOS
* Cell Name:    SA_M8
* View Name:    schematic
************************************************************************

.SUBCKT S1ALLSVTSW2000X20_SA_M8 TSMC_1 TSMC_2 TSMC_3 TSMC_4 TSMC_5 TSMC_6 
+ TSMC_7 TSMC_8 TSMC_9 TSMC_10 VDDAI VDDI VSSI 
*.PININFO  TSMC_7:I TSMC_8:I TSMC_9:I TSMC_10:I TSMC_1:B TSMC_2:B TSMC_3:B 
*.PININFO  TSMC_4:B 
*.PININFO  TSMC_5:B TSMC_6:B VDDAI:B VDDI:B VSSI:B 
MN0_MIXV_USD TSMC_11 TSMC_12 TSMC_13 VSSI nch_svt_mac l=20n nfin=10 m=4 
MN1_MIXV_USD TSMC_12 TSMC_11 TSMC_13 VSSI nch_svt_mac l=20n nfin=10 m=4 
MN11 TSMC_5 TSMC_14 VSSI VSSI nch_svt_mac l=20n nfin=10 m=3 
MM0 TSMC_6 TSMC_15 VSSI VSSI nch_svt_mac l=20n nfin=10 m=3 
MN2_MIXV_USD TSMC_13 TSMC_10 VSSI VSSI nch_svt_mac l=20n nfin=10 m=4 
MP2_MIXV_SULVT TSMC_11 TSMC_12 VDDAI VDDI pch_ulvt_mac l=20n nfin=5 m=1 
MP6_MIXV_SULVT TSMC_4 TSMC_8 TSMC_11 VDDI pch_ulvt_mac l=20n nfin=5 m=1 
MP7_MIXV_SULVT TSMC_2 TSMC_8 TSMC_12 VDDI pch_ulvt_mac l=20n nfin=5 m=1 
MP13_MIXV_SULVT TSMC_3 TSMC_7 TSMC_11 VDDI pch_ulvt_mac l=20n nfin=5 
+ m=1 
MP14_MIXV_SULVT TSMC_1 TSMC_7 TSMC_12 VDDI pch_ulvt_mac l=20n nfin=5 
+ m=1 
MP3_MIXV_SULVT TSMC_12 TSMC_11 VDDAI VDDI pch_ulvt_mac l=20n nfin=5 m=1 
MP8_MIXV_SULVT TSMC_11 TSMC_9 TSMC_12 VDDI pch_ulvt_mac l=20n nfin=5 
+ m=2 
MP11_MIXV_SULVT TSMC_12 TSMC_9 VDDAI VDDI pch_ulvt_mac l=20n nfin=5 m=1 
MP10_MIXV_SULVT TSMC_11 TSMC_9 VDDAI VDDI pch_ulvt_mac l=20n nfin=5 m=1 
XINV1 VSSI VSSI TSMC_12 TSMC_15 VDDAI VDDI 
+ S1ALLSVTSW2000X20_inv_svt_mac_pcell_1 n_totalM=1 n_nfin=3 n_l=20n p_totalM=1 
+ p_nfin=3 p_l=20n 
XINV0 VSSI VSSI TSMC_11 TSMC_14 VDDAI VDDI 
+ S1ALLSVTSW2000X20_inv_svt_mac_pcell_1 n_totalM=1 n_nfin=3 n_l=20n p_totalM=1 
+ p_nfin=3 p_l=20n 
.ENDS

************************************************************************
* Library Name: N16_FFC_CHAR_MB_BOS
* Cell Name:    IO_RWBLK_M8
* View Name:    schematic
************************************************************************

.SUBCKT S1ALLSVTSW2000X20_IO_RWBLK_M8 TSMC_1 TSMC_2 TSMC_3 TSMC_4 TSMC_5 TSMC_6 
+ TSMC_7 TSMC_8 TSMC_9 TSMC_10 TSMC_11 TSMC_12 TSMC_13 TSMC_14 TSMC_15 VDDAI 
+ VDDI VSSI TSMC_16 TSMC_17 TSMC_18 TSMC_19 
*.PININFO  TSMC_1:I TSMC_2:I TSMC_3:I TSMC_4:I TSMC_11:I TSMC_12:I TSMC_13:I 
*.PININFO  TSMC_15:I 
*.PININFO  TSMC_17:I TSMC_14:O TSMC_16:O TSMC_18:O TSMC_19:O TSMC_5:B TSMC_6:B 
*.PININFO  TSMC_7:B TSMC_8:B 
*.PININFO  TSMC_9:B TSMC_10:B VDDAI:B VDDI:B VSSI:B 
XSA TSMC_5 TSMC_6 TSMC_7 TSMC_8 TSMC_9 TSMC_10 TSMC_20 TSMC_21 TSMC_22 TSMC_23 
+ VDDAI VDDI VSSI S1ALLSVTSW2000X20_SA_M8 
MN0_MIXV_UWAS TSMC_16 TSMC_11 VSSI VSSI nch_ulvt_mac l=20n nfin=10 m=4 
MN13_MIXV_UWAS TSMC_19 TSMC_12 VSSI VSSI nch_ulvt_mac l=20n nfin=10 m=4 
MM3_MIXV_DFTUUU TSMC_24 TSMC_25 VSSI VSSI nch_ulvt_mac l=20n nfin=4 m=1 
XI49 TSMC_26 TSMC_25 VSSI VSSI VDDAI VDDI TSMC_22 
+ S1ALLSVTSW2000X20_nand2_svt_mac_pcell_0 n_totalM=1 n_nfin=3 n_l=20n 
+ p_totalM=1 p_nfin=3 p_l=20n 
MP25 TSMC_19 TSMC_12 VDDAI VDDI pch_svt_mac l=20n nfin=7 m=1 
MP27 TSMC_16 TSMC_11 VDDAI VDDI pch_svt_mac l=20n nfin=7 m=1 
MM1 TSMC_21 TSMC_25 VDDAI VDDI pch_svt_mac l=20n nfin=2 m=1 
MM2 TSMC_20 TSMC_25 VDDAI VDDI pch_svt_mac l=20n nfin=2 m=1 
XINV5 VSSI VSSI TSMC_26 TSMC_27 VDDAI VDDI 
+ S1ALLSVTSW2000X20_inv_svt_mac_pcell_1 n_totalM=2 n_nfin=3 n_l=20n p_totalM=2 
+ p_nfin=3 p_l=20n 
XI47_MIXV_ULVT_N VSSI VSSI TSMC_13 TSMC_26 VDDAI VDDI 
+ S1ALLSVTSW2000X20_inv_ulvt_macN_pcell_1 n_totalM=1 n_nfin=4 n_l=20n 
+ p_totalM=1 p_nfin=2 p_l=20n 
XI273_MIXV_ULVT_N TSMC_24 VSSI TSMC_1 TSMC_20 VDDAI VDDI 
+ S1ALLSVTSW2000X20_inv_ulvt_macN_pcell_1 n_totalM=1 n_nfin=4 n_l=20n 
+ p_totalM=1 p_nfin=2 p_l=20n 
XI108 VSSI VSSI TSMC_23 TSMC_25 VDDAI VDDI 
+ S1ALLSVTSW2000X20_inv_svt_mac_pcell_1 n_totalM=2 n_nfin=2 n_l=20n p_totalM=2 
+ p_nfin=2 p_l=20n 
XI1 VSSI VSSI TSMC_17 TSMC_28 VDDAI VDDI 
+ S1ALLSVTSW2000X20_inv_svt_mac_pcell_1 n_totalM=1 n_nfin=2 n_l=20n p_totalM=1 
+ p_nfin=2 p_l=20n 
XI111 VSSI VSSI TSMC_26 TSMC_14 VDDAI VDDI 
+ S1ALLSVTSW2000X20_inv_svt_mac_pcell_1 n_totalM=1 n_nfin=5 n_l=20n p_totalM=1 
+ p_nfin=8 p_l=20n 
XI268 VSSI VSSI TSMC_28 TSMC_18 VDDAI VDDI 
+ S1ALLSVTSW2000X20_inv_svt_mac_pcell_1 n_totalM=1 n_nfin=4 n_l=20n p_totalM=1 
+ p_nfin=8 p_l=20n 
XI248 VSSI VSSI TSMC_15 TSMC_23 VDDAI VDDI 
+ S1ALLSVTSW2000X20_inv_svt_mac_pcell_1 n_totalM=1 n_nfin=2 n_l=20n p_totalM=2 
+ p_nfin=2 p_l=20n 
XI272_MIXV_ULVT_N TSMC_24 VSSI TSMC_2 TSMC_21 VDDAI VDDI 
+ S1ALLSVTSW2000X20_inv_ulvt_macN_pcell_1 n_totalM=1 n_nfin=4 n_l=20n 
+ p_totalM=1 p_nfin=2 p_l=20n 
.ENDS

************************************************************************
* Library Name: N16_FFC_CHAR_MB_BOS
* Cell Name:    DOUT_INV
* View Name:    schematic
************************************************************************
