**** Created by MC2: Version 2013.12.00.f on 2025/06/23, 09:41:45 

************************************************************************
* auCdl Netlist:
* 
* Library Name:  n16ff_uhd1prf_sb_leafcell
* Top Cell Name: COMPILER_LEAFCELL
* View Name:     schematic
* Netlisted on:  Sep 11 17:24:04 2015
************************************************************************

*.BIPOLAR
*.CAPA
*.DIOPERI
*.DIOAREA
*.EQUATION
*.SCALE METER
*.PARAM


*.PIN vss

************************************************************************
* Library Name: tsmcN16
* Cell Name:    inv_lvt_mac_pcell_0
* View Name:    schematic
************************************************************************

.SUBCKT S5LLSVTSW8U80_inv_lvt_mac_pcell_0 TSMC_1 TSMC_2 TSMC_3 TSMC_4 TSMC_5 
+ TSMC_6 
MM1 TSMC_4 TSMC_3 TSMC_5 TSMC_6 pch_svt_mac l=p_l nfin=p_nfin m=p_totalM 
MM2 TSMC_4 TSMC_3 TSMC_1 TSMC_2 nch_svt_mac l=n_l nfin=n_nfin m=n_totalM 
.ENDS

************************************************************************
* Library Name: tsmcN16
* Cell Name:    nor2_lvt_mac_pcell_1
* View Name:    schematic
************************************************************************

.SUBCKT S5LLSVTSW8U80_nor2_lvt_mac_pcell_1 TSMC_1 TSMC_2 TSMC_3 TSMC_4 TSMC_5 
+ TSMC_6 TSMC_7 
MM2 TSMC_7 TSMC_2 TSMC_8 TSMC_6 pch_svt_mac l=p_l nfin=p_nfin m=p_totalM 
MM1 TSMC_8 TSMC_1 TSMC_5 TSMC_6 pch_svt_mac l=p_l nfin=p_nfin m=p_totalM 
MM4 TSMC_7 TSMC_2 TSMC_3 TSMC_4 nch_svt_mac l=n_l nfin=n_nfin m=n_totalM 
MM3 TSMC_7 TSMC_1 TSMC_3 TSMC_4 nch_svt_mac l=n_l nfin=n_nfin m=n_totalM 
.ENDS

************************************************************************
* Library Name: tsmcN16
* Cell Name:    nand3_lvt_mac_pcell_2
* View Name:    schematic
************************************************************************

.SUBCKT S5LLSVTSW8U80_nand3_lvt_mac_pcell_2 TSMC_1 TSMC_2 TSMC_3 TSMC_4 TSMC_5 
+ TSMC_6 TSMC_7 TSMC_8 
MM3 TSMC_8 TSMC_3 TSMC_6 TSMC_7 pch_svt_mac l=p_l nfin=p_nfin m=p_totalM 
MM2 TSMC_8 TSMC_2 TSMC_6 TSMC_7 pch_svt_mac l=p_l nfin=p_nfin m=p_totalM 
MM1 TSMC_8 TSMC_1 TSMC_6 TSMC_7 pch_svt_mac l=p_l nfin=p_nfin m=p_totalM 
MM6 TSMC_9 TSMC_3 TSMC_4 TSMC_5 nch_svt_mac l=n_l nfin=n_nfin 
+ m=n_totalM 
MM5 TSMC_10 TSMC_2 TSMC_9 TSMC_5 nch_svt_mac l=n_l nfin=n_nfin 
+ m=n_totalM 
MM4 TSMC_8 TSMC_1 TSMC_10 TSMC_5 nch_svt_mac l=n_l nfin=n_nfin 
+ m=n_totalM 
.ENDS

************************************************************************
* Library Name: n16ff_uhd1prf_sb_leafcell
* Cell Name:    MCB_D0907
* View Name:    schematic
************************************************************************

.SUBCKT S5LLSVTSW8U80_MCB_D0907 TSMC_1 TSMC_2 TSMC_3 TSMC_4 TSMC_5 TSMC_6 
MNCHPG1 TSMC_2 TSMC_6 TSMC_7 TSMC_5 nchpg_hcsr_mac l=20n nfin=2 m=1 
MNCHPG0 TSMC_1 TSMC_6 TSMC_8 TSMC_5 nchpg_hcsr_mac l=20n nfin=2 m=1 
MNCHPD1 TSMC_7 TSMC_8 TSMC_5 TSMC_5 nchpd_hcsr_mac l=20n nfin=2 m=1 
MNCHPD0 TSMC_8 TSMC_7 TSMC_5 TSMC_5 nchpd_hcsr_mac l=20n nfin=2 m=1 
MPCHPU1 TSMC_7 TSMC_8 TSMC_3 TSMC_4 pchpu_hcsr_mac l=20n nfin=1 m=1 
MPCHPU0 TSMC_8 TSMC_7 TSMC_3 TSMC_4 pchpu_hcsr_mac l=20n nfin=1 m=1 
.ENDS

************************************************************************
* Library Name: n16ff_uhd1prf_sb_leafcell
* Cell Name:    MCB_D0907_ONCELL
* View Name:    schematic
************************************************************************

.SUBCKT S5LLSVTSW8U80_MCB_D0907_ONCELL TSMC_1 TSMC_2 TSMC_3 TSMC_4 TSMC_5 
+ TSMC_6 TSMC_7 TSMC_8 
Mpg11 TSMC_1 TSMC_2 TSMC_9 TSMC_6 nchpg_hcsr_mac l=20n nfin=2 m=1 
Mpd11 TSMC_9 TSMC_5 TSMC_6 TSMC_6 nchpd_hcsr_mac l=20n nfin=2 m=1 
Mpd21 TSMC_10 TSMC_9 TSMC_6 TSMC_6 nchpd_hcsr_mac l=20n nfin=2 m=1 
Mpg21 TSMC_11 TSMC_7 TSMC_10 TSMC_6 nchpg_hcsr_mac l=20n nfin=2 m=1 
Mpd10 TSMC_12 TSMC_5 TSMC_6 TSMC_6 nchpd_hcsr_mac l=20n nfin=2 m=1 
Mpd20 TSMC_13 TSMC_12 TSMC_6 TSMC_6 nchpd_hcsr_mac l=20n nfin=2 m=1 
Mpg10 TSMC_1 TSMC_3 TSMC_12 TSMC_6 nchpg_hcsr_mac l=20n nfin=2 m=1 
Mpg20 TSMC_11 TSMC_8 TSMC_13 TSMC_6 nchpg_hcsr_mac l=20n nfin=2 m=1 
Mpu11 TSMC_9 TSMC_5 TSMC_5 TSMC_4 pchpu_hcsr_mac l=20n nfin=1 m=1 
Mpu10 TSMC_12 TSMC_5 TSMC_5 TSMC_4 pchpu_hcsr_mac l=20n nfin=1 m=1 
.ENDS

************************************************************************
* Library Name: n16ff_uhd1prf_sb_leafcell
* Cell Name:    WLDRV4X1_core
* View Name:    schematic
************************************************************************

.SUBCKT S5LLSVTSW8U80_WLDRV4X1_core TSMC_1 TSMC_2 TSMC_3 TSMC_4 TSMC_5 TSMC_6 
+ TSMC_7 TSMC_8 TSMC_9 TSMC_10 TSMC_11 TSMC_12 TSMC_13 TSMC_14 TSMC_15 TSMC_16 
MM100 TSMC_13 TSMC_17 TSMC_1 TSMC_1 pch_svt_mac l=20n nfin=14 m=2 
MM43 TSMC_12 TSMC_18 TSMC_1 TSMC_1 pch_svt_mac l=20n nfin=14 m=2 
MM91 TSMC_11 TSMC_19 TSMC_1 TSMC_1 pch_svt_mac l=20n nfin=14 m=2 
MM97 TSMC_14 TSMC_20 TSMC_1 TSMC_1 pch_svt_mac l=20n nfin=14 m=2 
MM92 TSMC_15 TSMC_19 TSMC_1 TSMC_1 pch_svt_mac l=20n nfin=14 m=2 
MM99 TSMC_9 TSMC_17 TSMC_1 TSMC_1 pch_svt_mac l=20n nfin=14 m=2 
MM89 TSMC_16 TSMC_18 TSMC_1 TSMC_1 pch_svt_mac l=20n nfin=14 m=2 
MM98 TSMC_10 TSMC_20 TSMC_1 TSMC_1 pch_svt_mac l=20n nfin=14 m=2 
MM100_2 TSMC_13 TSMC_17 TSMC_1 TSMC_1 pch_lvt_mac l=20n nfin=4 m=2 
MM43_2 TSMC_12 TSMC_18 TSMC_1 TSMC_1 pch_lvt_mac l=20n nfin=4 m=2 
MM91_2 TSMC_11 TSMC_19 TSMC_1 TSMC_1 pch_lvt_mac l=20n nfin=4 m=2 
MM97_2 TSMC_14 TSMC_20 TSMC_1 TSMC_1 pch_lvt_mac l=20n nfin=4 m=2 
MM92_2 TSMC_15 TSMC_19 TSMC_1 TSMC_1 pch_lvt_mac l=20n nfin=4 m=2 
MM99_2 TSMC_9 TSMC_17 TSMC_1 TSMC_1 pch_lvt_mac l=20n nfin=4 m=2 
MM89_2 TSMC_16 TSMC_18 TSMC_1 TSMC_1 pch_lvt_mac l=20n nfin=4 m=2 
MM98_2 TSMC_10 TSMC_20 TSMC_1 TSMC_1 pch_lvt_mac l=20n nfin=4 m=2 
MM42 TSMC_12 TSMC_18 TSMC_2 TSMC_2 nch_svt_mac l=20n nfin=12 m=2 
MM93 TSMC_11 TSMC_19 TSMC_2 TSMC_2 nch_svt_mac l=20n nfin=12 m=2 
MM113 TSMC_21 TSMC_8 TSMC_2 TSMC_2 nch_svt_mac l=20n nfin=3 m=4 
MM95 TSMC_14 TSMC_20 TSMC_2 TSMC_2 nch_svt_mac l=20n nfin=12 m=2 
MM88 TSMC_22 TSMC_21 TSMC_2 TSMC_2 nch_svt_mac l=20n nfin=6 m=8 
MM112 TSMC_21 TSMC_7 TSMC_2 TSMC_2 nch_svt_mac l=20n nfin=3 m=4 
MM94 TSMC_15 TSMC_19 TSMC_2 TSMC_2 nch_svt_mac l=20n nfin=12 m=2 
MM96 TSMC_10 TSMC_20 TSMC_2 TSMC_2 nch_svt_mac l=20n nfin=12 m=2 
MM90 TSMC_16 TSMC_18 TSMC_2 TSMC_2 nch_svt_mac l=20n nfin=12 m=2 
MM101 TSMC_9 TSMC_17 TSMC_2 TSMC_2 nch_svt_mac l=20n nfin=12 m=2 
MM102 TSMC_13 TSMC_17 TSMC_2 TSMC_2 nch_svt_mac l=20n nfin=12 m=2 
MM79 TSMC_19 TSMC_5 TSMC_1 TSMC_1 pch_svt_mac l=16.0n nfin=6 m=1 
MM82 TSMC_20 TSMC_4 TSMC_1 TSMC_1 pch_svt_mac l=16.0n nfin=6 m=1 
MM85 TSMC_17 TSMC_3 TSMC_1 TSMC_1 pch_svt_mac l=16.0n nfin=6 m=1 
MM18 TSMC_18 TSMC_6 TSMC_1 TSMC_1 pch_svt_mac l=16.0n nfin=6 m=1 
MM111 TSMC_21 TSMC_7 TSMC_23 TSMC_1 pch_lvt_mac l=20n nfin=5 m=4 
MM110 TSMC_23 TSMC_8 TSMC_1 TSMC_1 pch_lvt_mac l=20n nfin=5 m=4 
MM80 TSMC_19 TSMC_21 TSMC_1 TSMC_1 pch_svt_mac l=16.0n nfin=6 m=1 
MM86 TSMC_17 TSMC_21 TSMC_1 TSMC_1 pch_svt_mac l=16.0n nfin=6 m=1 
MM76 TSMC_22 TSMC_21 TSMC_1 TSMC_1 pch_svt_mac l=20n nfin=2 m=4 
MM77 TSMC_18 TSMC_21 TSMC_1 TSMC_1 pch_svt_mac l=16.0n nfin=6 m=1 
MM81 TSMC_20 TSMC_21 TSMC_1 TSMC_1 pch_svt_mac l=16.0n nfin=6 m=1 
MM87 TSMC_20 TSMC_4 TSMC_22 TSMC_2 nch_lvt_mac l=16.0n nfin=12 m=1 
MM78 TSMC_19 TSMC_5 TSMC_22 TSMC_2 nch_lvt_mac l=16.0n nfin=12 m=1 
MM84 TSMC_17 TSMC_3 TSMC_22 TSMC_2 nch_lvt_mac l=16.0n nfin=12 m=1 
MM17 TSMC_18 TSMC_6 TSMC_22 TSMC_2 nch_lvt_mac l=16.0n nfin=12 m=1 
.ENDS

************************************************************************
* Library Name: n16ff_uhd1prf_sb_leafcell
* Cell Name:    WLDRV4X1
* View Name:    schematic
************************************************************************

.SUBCKT S5LLSVTSW8U80_WLDRV4X1 TSMC_1 TSMC_2 TSMC_3 TSMC_4 TSMC_5 TSMC_6 TSMC_7 
+ TSMC_8 TSMC_9 TSMC_10 TSMC_11 TSMC_12 TSMC_13 TSMC_14 TSMC_15 TSMC_16 
XWLDV TSMC_1 TSMC_2 TSMC_3 TSMC_4 TSMC_5 TSMC_6 TSMC_7 TSMC_8 TSMC_9 
+ TSMC_10 TSMC_11 TSMC_12 TSMC_13 TSMC_14 TSMC_15 TSMC_16 
+ S5LLSVTSW8U80_WLDRV4X1_core 
.ENDS

************************************************************************
* Library Name: tsmcN16
* Cell Name:    nand2_lvt_mac_pcell_4
* View Name:    schematic
************************************************************************

.SUBCKT S5LLSVTSW8U80_nand2_lvt_mac_pcell_4 TSMC_1 TSMC_2 TSMC_3 TSMC_4 TSMC_5 
+ TSMC_6 TSMC_7 
MM2 TSMC_7 TSMC_2 TSMC_5 TSMC_6 pch_svt_mac l=p_l nfin=p_nfin m=p_totalM 
MM1 TSMC_7 TSMC_1 TSMC_5 TSMC_6 pch_svt_mac l=p_l nfin=p_nfin m=p_totalM 
MM4 TSMC_8 TSMC_2 TSMC_3 TSMC_4 nch_svt_mac l=n_l nfin=n_nfin m=n_totalM 
MM3 TSMC_7 TSMC_1 TSMC_8 TSMC_4 nch_svt_mac l=n_l nfin=n_nfin m=n_totalM 
.ENDS

************************************************************************
* Library Name: n16ff_uhd1prf_sb_leafcell
* Cell Name:    DINB1
* View Name:    schematic
************************************************************************

.SUBCKT S5LLSVTSW8U80_DINB1 TSMC_1 TSMC_2 TSMC_3 TSMC_4 TSMC_5 TSMC_6 TSMC_7 
+ TSMC_8 TSMC_9 TSMC_10 TSMC_11 
MM35 TSMC_12 TSMC_13 TSMC_14 TSMC_11 nch_lvt_mac l=20n nfin=3 m=1 
MM32 TSMC_5 TSMC_7 TSMC_15 TSMC_11 nch_lvt_mac l=20n nfin=3 m=1 
MM30 TSMC_15 TSMC_16 TSMC_14 TSMC_11 nch_lvt_mac l=20n nfin=3 m=1 
MM34 TSMC_4 TSMC_7 TSMC_12 TSMC_11 nch_lvt_mac l=20n nfin=3 m=1 
MM33 TSMC_14 TSMC_17 TSMC_11 TSMC_11 nch_lvt_mac l=20n nfin=3 m=2 
MM2 TSMC_18 TSMC_19 TSMC_11 TSMC_11 nch_svt_mac l=20n nfin=2 m=2 
MM0 TSMC_16 TSMC_3 TSMC_18 TSMC_11 nch_svt_mac l=20n nfin=2 m=2 
MTN3 TSMC_17 TSMC_1 TSMC_20 TSMC_11 nch_svt_mac l=20n nfin=2 m=2 
MM13 TSMC_17 TSMC_21 TSMC_22 TSMC_11 nch_svt_mac l=20n nfin=2 m=1 
MM7 TSMC_23 TSMC_13 TSMC_11 TSMC_11 nch_svt_mac l=20n nfin=2 m=1 
MM1 TSMC_16 TSMC_21 TSMC_23 TSMC_11 nch_svt_mac l=20n nfin=2 m=1 
MM11 TSMC_22 TSMC_24 TSMC_11 TSMC_11 nch_svt_mac l=20n nfin=2 m=1 
MTN2 TSMC_20 TSMC_19 TSMC_11 TSMC_11 nch_svt_mac l=20n nfin=2 m=2 
MM29 TSMC_5 TSMC_7 TSMC_10 TSMC_8 pch_svt_mac l=20n nfin=2 m=1 
MM31 TSMC_5 TSMC_16 TSMC_10 TSMC_8 pch_svt_mac l=20n nfin=2 m=1 
MM36 TSMC_5 TSMC_17 TSMC_10 TSMC_8 pch_svt_mac l=20n nfin=2 m=1 
MM37 TSMC_4 TSMC_17 TSMC_10 TSMC_8 pch_svt_mac l=20n nfin=2 m=1 
MM38 TSMC_4 TSMC_13 TSMC_10 TSMC_8 pch_svt_mac l=20n nfin=2 m=1 
MM39 TSMC_4 TSMC_7 TSMC_10 TSMC_8 pch_svt_mac l=20n nfin=2 m=1 
MM4 TSMC_25 TSMC_21 TSMC_9 TSMC_8 pch_svt_mac l=20n nfin=2 m=2 
MM6 TSMC_16 TSMC_3 TSMC_25 TSMC_8 pch_svt_mac l=20n nfin=2 m=2 
MP0 TSMC_26 TSMC_21 TSMC_9 TSMC_8 pch_svt_mac l=20n nfin=2 m=2 
MP3 TSMC_17 TSMC_19 TSMC_27 TSMC_8 pch_svt_mac l=20n nfin=2 m=1 
MP2 TSMC_27 TSMC_24 TSMC_9 TSMC_8 pch_svt_mac l=20n nfin=2 m=1 
MP1 TSMC_17 TSMC_1 TSMC_26 TSMC_8 pch_svt_mac l=20n nfin=2 m=2 
MM3 TSMC_28 TSMC_13 TSMC_9 TSMC_8 pch_svt_mac l=20n nfin=2 m=1 
MM5 TSMC_16 TSMC_19 TSMC_28 TSMC_8 pch_svt_mac l=20n nfin=2 m=1 
XI66 TSMC_11 TSMC_11 TSMC_24 TSMC_2 TSMC_9 TSMC_8 
+ S5LLSVTSW8U80_inv_lvt_mac_pcell_0 n_totalM=1 n_nfin=3 n_l=20n p_totalM=1 
+ p_nfin=3 p_l=20n 
XI52 TSMC_11 TSMC_11 TSMC_17 TSMC_24 TSMC_9 TSMC_8 
+ S5LLSVTSW8U80_inv_lvt_mac_pcell_0 n_totalM=1 n_nfin=2 n_l=20n p_totalM=1 
+ p_nfin=2 p_l=20n 
XI38 TSMC_11 TSMC_11 TSMC_6 TSMC_19 TSMC_9 TSMC_8 
+ S5LLSVTSW8U80_inv_lvt_mac_pcell_0 n_totalM=1 n_nfin=2 n_l=20n p_totalM=1 
+ p_nfin=2 p_l=20n 
XI18 TSMC_11 TSMC_11 TSMC_16 TSMC_13 TSMC_9 TSMC_8 
+ S5LLSVTSW8U80_inv_lvt_mac_pcell_0 n_totalM=1 n_nfin=2 n_l=20n p_totalM=1 
+ p_nfin=2 p_l=20n 
XI64 TSMC_11 TSMC_11 TSMC_19 TSMC_21 TSMC_9 TSMC_8 
+ S5LLSVTSW8U80_inv_lvt_mac_pcell_0 n_totalM=1 n_nfin=2 n_l=20n p_totalM=1 
+ p_nfin=2 p_l=20n 
.ENDS

************************************************************************
* Library Name: n16ff_uhd1prf_sb_leafcell
* Cell Name:    IOEDGE_R
* View Name:    schematic
************************************************************************

.SUBCKT S5LLSVTSW8U80_IOEDGE_R TSMC_1 TSMC_2 TSMC_3 TSMC_4 
MM52 TSMC_4 TSMC_1 TSMC_4 TSMC_4 nch_svt_mac l=20n nfin=2 m=1 
MM51 TSMC_2 TSMC_1 TSMC_2 TSMC_2 pch_svt_mac l=20n nfin=2 m=1 
.ENDS

************************************************************************
* Library Name: n16ff_uhd1prf_sb_leafcell
* Cell Name:    DIOB1
* View Name:    schematic
************************************************************************

.SUBCKT S5LLSVTSW8U80_DIOB1 TSMC_1 TSMC_2 TSMC_3 TSMC_4 TSMC_5 TSMC_6 TSMC_7 
+ TSMC_8 TSMC_9 TSMC_10 TSMC_11 TSMC_12 TSMC_13 
MM5 TSMC_8 TSMC_7 TSMC_12 TSMC_10 pch_lvt_mac l=20n nfin=3 m=2 
MMP50 TSMC_7 TSMC_9 TSMC_12 TSMC_10 pch_lvt_mac l=20n nfin=3 m=2 
MP1 TSMC_14 TSMC_1 TSMC_11 TSMC_10 pch_ulvt_mac l=20n nfin=4 m=2 
MM0 TSMC_5 TSMC_8 TSMC_14 TSMC_10 pch_ulvt_mac l=20n nfin=4 m=2 
MM3 TSMC_15 TSMC_2 TSMC_11 TSMC_10 pch_ulvt_mac l=20n nfin=4 m=2 
MM4 TSMC_6 TSMC_8 TSMC_15 TSMC_10 pch_ulvt_mac l=20n nfin=4 m=2 
MN1 TSMC_16 TSMC_1 TSMC_13 TSMC_13 nch_svt_mac l=20n nfin=3 m=2 
MM9 TSMC_5 TSMC_7 TSMC_16 TSMC_13 nch_svt_mac l=20n nfin=3 m=2 
MM1 TSMC_6 TSMC_7 TSMC_17 TSMC_13 nch_svt_mac l=20n nfin=3 m=2 
MMN50 TSMC_7 TSMC_9 TSMC_13 TSMC_13 nch_svt_mac l=20n nfin=3 m=2 
MM2 TSMC_17 TSMC_2 TSMC_13 TSMC_13 nch_svt_mac l=20n nfin=3 m=2 
MM8 TSMC_8 TSMC_7 TSMC_13 TSMC_13 nch_svt_mac l=20n nfin=3 m=2 
.ENDS

************************************************************************
* Library Name: n16ff_uhd1prf_sb_leafcell
* Cell Name:    DOUT1
* View Name:    schematic
************************************************************************

.SUBCKT S5LLSVTSW8U80_DOUT1 TSMC_1 TSMC_2 TSMC_3 TSMC_4 TSMC_5 TSMC_6 TSMC_7 
MM6 TSMC_2 TSMC_1 TSMC_6 TSMC_5 pch_svt_mac l=20n nfin=3 m=5 
MM2 TSMC_8 TSMC_9 TSMC_6 TSMC_5 pch_svt_mac l=20n nfin=2 m=1 
MM0 TSMC_1 TSMC_3 TSMC_8 TSMC_5 pch_svt_mac l=20n nfin=2 m=1 
XI30 TSMC_7 TSMC_7 TSMC_1 TSMC_9 TSMC_6 TSMC_5 
+ S5LLSVTSW8U80_inv_lvt_mac_pcell_0 n_totalM=1 n_nfin=2 n_l=20n p_totalM=1 
+ p_nfin=2 p_l=20n 
MM7 TSMC_2 TSMC_1 TSMC_7 TSMC_7 nch_svt_mac l=20n nfin=3 m=5 
MM1 TSMC_1 TSMC_4 TSMC_10 TSMC_7 nch_svt_mac l=20n nfin=2 m=1 
MM3 TSMC_10 TSMC_9 TSMC_7 TSMC_7 nch_svt_mac l=20n nfin=2 m=1 
.ENDS

************************************************************************
* Library Name: n16ff_uhd1prf_sb_leafcell
* Cell Name:    WRITE_PASS1
* View Name:    schematic
************************************************************************

.SUBCKT S5LLSVTSW8U80_WRITE_PASS1 TSMC_1 TSMC_2 TSMC_3 TSMC_4 TSMC_5 TSMC_6 
+ TSMC_7 
MM21 TSMC_8 TSMC_4 TSMC_7 TSMC_7 nch_svt_mac l=20n nfin=2 m=1 
MM1 TSMC_9 TSMC_3 TSMC_7 TSMC_7 nch_svt_mac l=20n nfin=2 m=1 
MN2 TSMC_1 TSMC_8 TSMC_7 TSMC_7 nch_svt_mac l=16n nfin=4 m=2 
MN3 TSMC_2 TSMC_9 TSMC_7 TSMC_7 nch_svt_mac l=16n nfin=4 m=2 
MM10 TSMC_9 TSMC_3 TSMC_6 TSMC_5 pch_lvt_mac l=20n nfin=2 m=1 
MM23 TSMC_8 TSMC_4 TSMC_6 TSMC_5 pch_lvt_mac l=20n nfin=2 m=1 
MM0 TSMC_2 TSMC_4 TSMC_6 TSMC_5 pch_lvt_mac l=20n nfin=2 m=1 
MM14 TSMC_1 TSMC_3 TSMC_6 TSMC_5 pch_lvt_mac l=20n nfin=2 m=1 
.ENDS

************************************************************************
* Library Name: n16ff_uhd1prf_sb_leafcell
* Cell Name:    SA_MUX1_L20X2
* View Name:    schematic
************************************************************************

.SUBCKT S5LLSVTSW8U80_SA_MUX1_L20X2 TSMC_1 TSMC_2 TSMC_3 TSMC_4 TSMC_5 TSMC_6 
+ TSMC_7 TSMC_8 TSMC_9 TSMC_10 
MM10 TSMC_4 TSMC_11 TSMC_9 TSMC_8 pch_svt_mac l=20n nfin=4 m=2 
MM12 TSMC_4 TSMC_2 TSMC_9 TSMC_8 pch_svt_mac l=20n nfin=4 m=1 
MM14 TSMC_9 TSMC_11 TSMC_2 TSMC_8 pch_svt_mac l=20n nfin=4 m=2 
MP7 TSMC_9 TSMC_3 TSMC_1 TSMC_8 pch_svt_mac l=20n nfin=4 m=1 
MP2_MIXV_SSS TSMC_9 TSMC_11 TSMC_1 TSMC_8 pch_svt_mac l=20n nfin=4 m=2 
MP6 TSMC_3 TSMC_1 TSMC_9 TSMC_8 pch_svt_mac l=20n nfin=4 m=1 
MM8 TSMC_3 TSMC_11 TSMC_1 TSMC_8 pch_svt_mac l=20n nfin=4 m=1 
MM13 TSMC_4 TSMC_11 TSMC_2 TSMC_8 pch_svt_mac l=20n nfin=4 m=1 
MM15 TSMC_9 TSMC_4 TSMC_2 TSMC_8 pch_svt_mac l=20n nfin=4 m=1 
MP3_MIXV_SSS TSMC_3 TSMC_11 TSMC_9 TSMC_8 pch_svt_mac l=20n nfin=4 m=2 
XI81 TSMC_6 TSMC_7 TSMC_10 TSMC_10 TSMC_9 TSMC_8 TSMC_11 
+ S5LLSVTSW8U80_nand2_lvt_mac_pcell_4 n_totalM=1 n_nfin=7 n_l=20n p_totalM=1 
+ p_nfin=6 p_l=20n 
MM4_MIXV_SSS TSMC_3 TSMC_1 TSMC_12 TSMC_10 nch_svt_mac l=20n nfin=5 m=4 
MM16 TSMC_2 TSMC_4 TSMC_13 TSMC_10 nch_svt_mac l=20n nfin=5 m=4 
MM11 TSMC_4 TSMC_2 TSMC_13 TSMC_10 nch_svt_mac l=20n nfin=5 m=4 
MM2 TSMC_12 TSMC_5 TSMC_10 TSMC_10 nch_svt_mac l=20n nfin=5 m=4 
MM17 TSMC_13 TSMC_5 TSMC_10 TSMC_10 nch_svt_mac l=20n nfin=5 m=4 
MM10_MIXV_SSS TSMC_1 TSMC_3 TSMC_12 TSMC_10 nch_svt_mac l=20n nfin=5 
+ m=4 
.ENDS

************************************************************************
* Library Name: n16ff_uhd1prf_sb_leafcell
* Cell Name:    BIT1A_CORE_L20
* View Name:    schematic
************************************************************************

.SUBCKT S5LLSVTSW8U80_BIT1A_CORE_L20 TSMC_1 TSMC_2 TSMC_3 TSMC_4 TSMC_5 TSMC_6 
+ TSMC_7 TSMC_8 TSMC_9 TSMC_10 TSMC_11 TSMC_12 TSMC_13 TSMC_14 TSMC_15 TSMC_16 
+ TSMC_17 TSMC_18 TSMC_19 TSMC_20 TSMC_21 
Xdiob TSMC_1 TSMC_2 TSMC_3 TSMC_4 TSMC_22 TSMC_23 TSMC_24 TSMC_25 TSMC_15 
+ TSMC_18 TSMC_19 TSMC_19 TSMC_21 S5LLSVTSW8U80_DIOB1 
Xdout<0> TSMC_22 TSMC_13 TSMC_24 TSMC_25 TSMC_18 TSMC_19 TSMC_21 
+ S5LLSVTSW8U80_DOUT1 
Xdout<1> TSMC_23 TSMC_14 TSMC_24 TSMC_25 TSMC_18 TSMC_19 TSMC_21 
+ S5LLSVTSW8U80_DOUT1 
Xdinb<0> TSMC_5 TSMC_7 TSMC_9 TSMC_26 TSMC_27 TSMC_11 TSMC_12 TSMC_18 TSMC_19 
+ TSMC_20 TSMC_21 S5LLSVTSW8U80_DINB1 
Xdinb<1> TSMC_6 TSMC_8 TSMC_10 TSMC_28 TSMC_29 TSMC_11 TSMC_12 TSMC_18 TSMC_19 
+ TSMC_20 TSMC_21 S5LLSVTSW8U80_DINB1 
Xwpass<0> TSMC_1 TSMC_3 TSMC_26 TSMC_27 TSMC_18 TSMC_20 TSMC_21 
+ S5LLSVTSW8U80_WRITE_PASS1 
Xwpass<1> TSMC_2 TSMC_4 TSMC_28 TSMC_29 TSMC_18 TSMC_20 TSMC_21 
+ S5LLSVTSW8U80_WRITE_PASS1 
XSA<0> TSMC_1 TSMC_2 TSMC_3 TSMC_4 TSMC_24 TSMC_25 TSMC_17 TSMC_18 TSMC_20 
+ TSMC_21 S5LLSVTSW8U80_SA_MUX1_L20X2 
.ENDS

************************************************************************
* Library Name: n16ff_uhd1prf_sb_leafcell
* Cell Name:    RESETD_RTSEL
* View Name:    schematic
************************************************************************

.SUBCKT S5LLSVTSW8U80_RESETD_RTSEL TSMC_1 TSMC_2 TSMC_3 TSMC_4 TSMC_5 TSMC_6 
+ TSMC_7 TSMC_8 
MM24 TSMC_9 TSMC_8 TSMC_6 TSMC_6 nch_svt_mac l=16.0n nfin=2 m=1 
MM8 TSMC_10 TSMC_11 TSMC_6 TSMC_6 nch_svt_mac l=20n nfin=2 m=1 
MM19 TSMC_2 TSMC_12 TSMC_9 TSMC_6 nch_svt_mac l=16.0n nfin=2 m=1 
MM6 TSMC_13 TSMC_11 TSMC_10 TSMC_6 nch_svt_mac l=20n nfin=2 m=1 
MM4 TSMC_14 TSMC_1 TSMC_6 TSMC_6 nch_svt_mac l=20n nfin=2 m=1 
MM2 TSMC_11 TSMC_1 TSMC_14 TSMC_6 nch_svt_mac l=20n nfin=2 m=1 
MM10 TSMC_15 TSMC_13 TSMC_16 TSMC_6 nch_svt_mac l=20n nfin=2 m=1 
MM12 TSMC_16 TSMC_13 TSMC_6 TSMC_6 nch_svt_mac l=20n nfin=2 m=1 
MM1 TSMC_12 TSMC_17 TSMC_5 TSMC_4 pch_svt_mac l=16.0n nfin=2 m=1 
MM17 TSMC_12 TSMC_1 TSMC_5 TSMC_4 pch_svt_mac l=16.0n nfin=2 m=1 
MM7 TSMC_13 TSMC_11 TSMC_18 TSMC_4 pch_svt_mac l=20n nfin=2 m=1 
MM5 TSMC_19 TSMC_1 TSMC_5 TSMC_4 pch_svt_mac l=20n nfin=2 m=1 
MM3 TSMC_11 TSMC_1 TSMC_19 TSMC_4 pch_svt_mac l=20n nfin=2 m=1 
MM9 TSMC_18 TSMC_11 TSMC_5 TSMC_4 pch_svt_mac l=20n nfin=2 m=1 
MM11 TSMC_15 TSMC_13 TSMC_20 TSMC_4 pch_svt_mac l=20n nfin=2 m=1 
MM13 TSMC_20 TSMC_13 TSMC_5 TSMC_4 pch_svt_mac l=20n nfin=2 m=1 
XI8 TSMC_6 TSMC_6 TSMC_7 TSMC_21 TSMC_5 TSMC_4 
+ S5LLSVTSW8U80_inv_lvt_mac_pcell_0 n_totalM=1 n_nfin=2 n_l=20n p_totalM=1 
+ p_nfin=2 p_l=20n 
XI7 TSMC_6 TSMC_6 TSMC_8 TSMC_22 TSMC_5 TSMC_4 
+ S5LLSVTSW8U80_inv_lvt_mac_pcell_0 n_totalM=1 n_nfin=2 n_l=20n p_totalM=1 
+ p_nfin=2 p_l=20n 
XI14 TSMC_7 TSMC_8 TSMC_6 TSMC_6 TSMC_5 TSMC_4 TSMC_23 
+ S5LLSVTSW8U80_nand2_lvt_mac_pcell_4 n_totalM=1 n_nfin=2 n_l=20n p_totalM=1 
+ p_nfin=2 p_l=20n 
XI0 TSMC_23 TSMC_15 TSMC_6 TSMC_6 TSMC_5 TSMC_4 TSMC_24 
+ S5LLSVTSW8U80_nand2_lvt_mac_pcell_4 n_totalM=1 n_nfin=2 n_l=20n p_totalM=1 
+ p_nfin=2 p_l=20n 
XI11 TSMC_1 TSMC_24 TSMC_6 TSMC_6 TSMC_5 TSMC_4 TSMC_25 
+ S5LLSVTSW8U80_nand2_lvt_mac_pcell_4 n_totalM=1 n_nfin=2 n_l=20n p_totalM=1 
+ p_nfin=2 p_l=20n 
XI10 TSMC_25 TSMC_26 TSMC_6 TSMC_6 TSMC_5 TSMC_4 TSMC_17 
+ S5LLSVTSW8U80_nand2_lvt_mac_pcell_4 n_totalM=1 n_nfin=2 n_l=20n p_totalM=1 
+ p_nfin=2 p_l=20n 
XI12 TSMC_21 TSMC_8 TSMC_6 TSMC_6 TSMC_5 TSMC_4 TSMC_26 
+ S5LLSVTSW8U80_nand2_lvt_mac_pcell_4 n_totalM=1 n_nfin=2 n_l=20n p_totalM=1 
+ p_nfin=2 p_l=20n 
MM14 TSMC_27 TSMC_17 TSMC_6 TSMC_6 nch_ulvt_mac l=16.0n nfin=2 m=1 
MM15 TSMC_12 TSMC_1 TSMC_27 TSMC_6 nch_ulvt_mac l=16.0n nfin=2 m=1 
MM23 TSMC_2 TSMC_8 TSMC_5 TSMC_4 pch_ulvt_mac l=16.0n nfin=6 m=1 
MM21 TSMC_2 TSMC_12 TSMC_5 TSMC_4 pch_ulvt_mac l=16.0n nfin=6 m=1 
.ENDS

************************************************************************
* Library Name: tsmcN16
* Cell Name:    nand3_ulvt_mac_pcell_6
* View Name:    schematic
************************************************************************

.SUBCKT S5LLSVTSW8U80_nand3_ulvt_mac_pcell_6 TSMC_1 TSMC_2 TSMC_3 TSMC_4 TSMC_5 
+ TSMC_6 TSMC_7 TSMC_8 
MM3 TSMC_8 TSMC_3 TSMC_6 TSMC_7 pch_ulvt_mac l=p_l nfin=p_nfin 
+ m=p_totalM 
MM2 TSMC_8 TSMC_2 TSMC_6 TSMC_7 pch_ulvt_mac l=p_l nfin=p_nfin 
+ m=p_totalM 
MM1 TSMC_8 TSMC_1 TSMC_6 TSMC_7 pch_ulvt_mac l=p_l nfin=p_nfin 
+ m=p_totalM 
MM6 TSMC_9 TSMC_3 TSMC_4 TSMC_5 nch_ulvt_mac l=n_l nfin=n_nfin 
+ m=n_totalM 
MM5 TSMC_10 TSMC_2 TSMC_9 TSMC_5 nch_ulvt_mac l=n_l nfin=n_nfin 
+ m=n_totalM 
MM4 TSMC_8 TSMC_1 TSMC_10 TSMC_5 nch_ulvt_mac l=n_l nfin=n_nfin 
+ m=n_totalM 
.ENDS

************************************************************************
* Library Name: n16ff_uhd1prf_sb_leafcell
* Cell Name:    RESETD_WTSEL
* View Name:    schematic
************************************************************************

.SUBCKT S5LLSVTSW8U80_RESETD_WTSEL TSMC_1 TSMC_2 TSMC_3 TSMC_4 TSMC_5 TSMC_6 
+ TSMC_7 TSMC_8 
MM8 TSMC_9 TSMC_10 TSMC_5 TSMC_5 nch_svt_mac l=20n nfin=2 m=1 
MM6 TSMC_11 TSMC_10 TSMC_9 TSMC_5 nch_svt_mac l=20n nfin=2 m=1 
MM4 TSMC_12 TSMC_1 TSMC_5 TSMC_5 nch_svt_mac l=20n nfin=2 m=1 
MM2 TSMC_10 TSMC_1 TSMC_12 TSMC_5 nch_svt_mac l=20n nfin=2 m=1 
MM10 TSMC_13 TSMC_11 TSMC_14 TSMC_5 nch_svt_mac l=20n nfin=2 m=1 
MM12 TSMC_14 TSMC_11 TSMC_5 TSMC_5 nch_svt_mac l=20n nfin=2 m=1 
MM20 TSMC_15 TSMC_1 TSMC_4 TSMC_3 pch_svt_mac l=20n nfin=2 m=1 
MM18 TSMC_16 TSMC_17 TSMC_4 TSMC_3 pch_svt_mac l=20n nfin=2 m=1 
MM17 TSMC_16 TSMC_18 TSMC_4 TSMC_3 pch_svt_mac l=20n nfin=2 m=1 
MM7 TSMC_11 TSMC_10 TSMC_19 TSMC_3 pch_svt_mac l=20n nfin=2 m=1 
MM19 TSMC_15 TSMC_20 TSMC_4 TSMC_3 pch_svt_mac l=20n nfin=2 m=1 
MM5 TSMC_21 TSMC_1 TSMC_4 TSMC_3 pch_svt_mac l=20n nfin=2 m=1 
MM3 TSMC_10 TSMC_1 TSMC_21 TSMC_3 pch_svt_mac l=20n nfin=2 m=1 
MM9 TSMC_19 TSMC_10 TSMC_4 TSMC_3 pch_svt_mac l=20n nfin=2 m=1 
MM11 TSMC_13 TSMC_11 TSMC_22 TSMC_3 pch_svt_mac l=20n nfin=2 m=1 
MM13 TSMC_22 TSMC_11 TSMC_4 TSMC_3 pch_svt_mac l=20n nfin=2 m=1 
XI8 TSMC_5 TSMC_5 TSMC_7 TSMC_17 TSMC_4 TSMC_3 
+ S5LLSVTSW8U80_inv_lvt_mac_pcell_0 n_totalM=1 n_nfin=2 n_l=20n p_totalM=1 
+ p_nfin=2 p_l=20n 
XI7 TSMC_5 TSMC_5 TSMC_8 TSMC_18 TSMC_4 TSMC_3 
+ S5LLSVTSW8U80_inv_lvt_mac_pcell_0 n_totalM=1 n_nfin=2 n_l=20n p_totalM=1 
+ p_nfin=2 p_l=20n 
XI14 TSMC_17 TSMC_8 TSMC_5 TSMC_5 TSMC_4 TSMC_3 TSMC_23 
+ S5LLSVTSW8U80_nand2_lvt_mac_pcell_4 n_totalM=1 n_nfin=2 n_l=20n p_totalM=1 
+ p_nfin=2 p_l=20n 
XI0 TSMC_23 TSMC_13 TSMC_5 TSMC_5 TSMC_4 TSMC_3 TSMC_24 
+ S5LLSVTSW8U80_nand2_lvt_mac_pcell_4 n_totalM=1 n_nfin=2 n_l=20n p_totalM=1 
+ p_nfin=2 p_l=20n 
XI11 TSMC_1 TSMC_24 TSMC_5 TSMC_5 TSMC_4 TSMC_3 TSMC_25 
+ S5LLSVTSW8U80_nand2_lvt_mac_pcell_4 n_totalM=1 n_nfin=2 n_l=20n p_totalM=1 
+ p_nfin=2 p_l=20n 
XI10 TSMC_25 TSMC_26 TSMC_5 TSMC_5 TSMC_4 TSMC_3 TSMC_20 
+ S5LLSVTSW8U80_nand2_lvt_mac_pcell_4 n_totalM=1 n_nfin=2 n_l=20n p_totalM=1 
+ p_nfin=2 p_l=20n 
XI12 TSMC_7 TSMC_18 TSMC_5 TSMC_5 TSMC_4 TSMC_3 TSMC_26 
+ S5LLSVTSW8U80_nand2_lvt_mac_pcell_4 n_totalM=1 n_nfin=2 n_l=20n p_totalM=1 
+ p_nfin=2 p_l=20n 
MM0 TSMC_16 TSMC_17 TSMC_27 TSMC_5 nch_ulvt_mac l=20n nfin=2 m=1 
MM1 TSMC_27 TSMC_18 TSMC_5 TSMC_5 nch_ulvt_mac l=20n nfin=2 m=1 
MM15 TSMC_15 TSMC_1 TSMC_28 TSMC_5 nch_ulvt_mac l=20n nfin=2 m=1 
MM14 TSMC_28 TSMC_20 TSMC_5 TSMC_5 nch_ulvt_mac l=20n nfin=2 m=1 
XI28 TSMC_15 TSMC_15 TSMC_16 TSMC_5 TSMC_5 TSMC_4 TSMC_3 TSMC_2 
+ S5LLSVTSW8U80_nand3_ulvt_mac_pcell_6 n_totalM=1 n_nfin=2 n_l=20n p_totalM=1 
+ p_nfin=2 p_l=20n 
.ENDS

************************************************************************
* Library Name: tsmcN16
* Cell Name:    nor3_lvt_mac_pcell_7
* View Name:    schematic
************************************************************************

.SUBCKT S5LLSVTSW8U80_nor3_lvt_mac_pcell_7 TSMC_1 TSMC_2 TSMC_3 TSMC_4 TSMC_5 
+ TSMC_6 TSMC_7 TSMC_8 
MM3 TSMC_8 TSMC_3 TSMC_9 TSMC_7 pch_svt_mac l=p_l nfin=p_nfin 
+ m=p_totalM 
MM2 TSMC_9 TSMC_2 TSMC_10 TSMC_7 pch_svt_mac l=p_l nfin=p_nfin 
+ m=p_totalM 
MM1 TSMC_10 TSMC_1 TSMC_6 TSMC_7 pch_svt_mac l=p_l nfin=p_nfin 
+ m=p_totalM 
MM6 TSMC_8 TSMC_3 TSMC_4 TSMC_5 nch_svt_mac l=n_l nfin=n_nfin 
+ m=n_totalM 
MM5 TSMC_8 TSMC_2 TSMC_4 TSMC_5 nch_svt_mac l=n_l nfin=n_nfin 
+ m=n_totalM 
MM4 TSMC_8 TSMC_1 TSMC_4 TSMC_5 nch_svt_mac l=n_l nfin=n_nfin 
+ m=n_totalM 
.ENDS

************************************************************************
* Library Name: n16ff_uhd1prf_sb_leafcell
* Cell Name:    vhilo
* View Name:    schematic
************************************************************************

.SUBCKT S5LLSVTSW8U80_vhilo TSMC_1 TSMC_2 TSMC_3 TSMC_4 
MN3 TSMC_4 TSMC_5 TSMC_6 TSMC_4 nch_svt_mac l=20n nfin=3 m=1 
MN0 TSMC_4 TSMC_6 TSMC_6 TSMC_4 nch_svt_mac l=20n nfin=3 m=1 
MN1 TSMC_4 TSMC_5 TSMC_7 TSMC_4 nch_svt_mac l=20n nfin=3 m=1 
MP7 TSMC_5 TSMC_6 TSMC_1 TSMC_1 pch_svt_mac l=20n nfin=3 m=1 
MP2 TSMC_8 TSMC_6 TSMC_1 TSMC_1 pch_svt_mac l=20n nfin=3 m=1 
MP0 TSMC_5 TSMC_5 TSMC_1 TSMC_1 pch_svt_mac l=20n nfin=3 m=1 
XI16 TSMC_4 TSMC_4 TSMC_8 TSMC_3 TSMC_1 TSMC_1 
+ S5LLSVTSW8U80_inv_lvt_mac_pcell_0 n_totalM=2 n_nfin=3 n_l=20n p_totalM=2 
+ p_nfin=3 p_l=20n 
XI43 TSMC_4 TSMC_4 TSMC_7 TSMC_2 TSMC_1 TSMC_1 
+ S5LLSVTSW8U80_inv_lvt_mac_pcell_0 n_totalM=2 n_nfin=3 n_l=20n p_totalM=2 
+ p_nfin=3 p_l=20n 
.ENDS

************************************************************************
* Library Name: n16ff_uhd1prf_sb_leafcell
* Cell Name:    CKWT_gen
* View Name:    schematic
************************************************************************

.SUBCKT S5LLSVTSW8U80_CKWT_gen TSMC_1 TSMC_2 TSMC_3 TSMC_4 TSMC_5 TSMC_6 TSMC_7 
+ TSMC_8 TSMC_9 
MM0 TSMC_6 TSMC_10 TSMC_9 TSMC_9 nch_svt_mac l=20n nfin=6 m=7 
MM33 TSMC_4 TSMC_10 TSMC_9 TSMC_9 nch_svt_mac l=20n nfin=6 m=6 
MM51 TSMC_5 TSMC_10 TSMC_9 TSMC_9 nch_svt_mac l=20n nfin=6 m=7 
MM49 TSMC_10 TSMC_2 TSMC_11 TSMC_9 nch_lvt_mac l=16.0n nfin=6 m=8 
MM25 TSMC_10 TSMC_1 TSMC_11 TSMC_9 nch_lvt_mac l=16.0n nfin=6 m=1 
MM53 TSMC_11 TSMC_3 TSMC_9 TSMC_9 nch_lvt_mac l=16.0n nfin=6 m=7 
MM1 TSMC_6 TSMC_10 TSMC_8 TSMC_7 pch_svt_mac l=20n nfin=6 m=7 
MM52 TSMC_5 TSMC_10 TSMC_8 TSMC_7 pch_svt_mac l=20n nfin=6 m=7 
MM34 TSMC_4 TSMC_10 TSMC_8 TSMC_7 pch_svt_mac l=20n nfin=6 m=6 
MM50 TSMC_10 TSMC_3 TSMC_8 TSMC_7 pch_svt_mac l=16.0n nfin=3 m=7 
MM48 TSMC_12 TSMC_2 TSMC_8 TSMC_7 pch_svt_mac l=16.0n nfin=3 m=2 
MM27 TSMC_10 TSMC_1 TSMC_12 TSMC_7 pch_svt_mac l=16.0n nfin=3 m=2 
.ENDS

************************************************************************
* Library Name: n16ff_uhd1prf_sb_leafcell
* Cell Name:    ydec_write
* View Name:    schematic
************************************************************************

.SUBCKT S5LLSVTSW8U80_ydec_write TSMC_1 TSMC_2 TSMC_3 TSMC_4 TSMC_5 TSMC_6 
+ TSMC_7 
MM7 TSMC_8 TSMC_2 TSMC_5 TSMC_5 nch_svt_mac l=20n nfin=6 m=4 
MM9 TSMC_9 TSMC_1 TSMC_5 TSMC_5 nch_svt_mac l=20n nfin=6 m=4 
MM1 TSMC_6 TSMC_9 TSMC_5 TSMC_5 nch_svt_mac l=20n nfin=6 m=12 
MM3 TSMC_7 TSMC_8 TSMC_5 TSMC_5 nch_svt_mac l=20n nfin=6 m=12 
MM2 TSMC_6 TSMC_9 TSMC_4 TSMC_3 pch_svt_mac l=20n nfin=6 m=12 
MM0 TSMC_7 TSMC_8 TSMC_4 TSMC_3 pch_svt_mac l=20n nfin=6 m=12 
MM34 TSMC_9 TSMC_1 TSMC_4 TSMC_3 pch_svt_mac l=20n nfin=6 m=4 
MM33 TSMC_8 TSMC_2 TSMC_4 TSMC_3 pch_svt_mac l=20n nfin=6 m=4 
.ENDS

************************************************************************
* Library Name: n16ff_uhd1prf_sb_leafcell
* Cell Name:    ydec_read
* View Name:    schematic
************************************************************************

.SUBCKT S5LLSVTSW8U80_ydec_read TSMC_1 TSMC_2 TSMC_3 TSMC_4 TSMC_5 TSMC_6 
+ TSMC_7 TSMC_8 
MM16 TSMC_7 TSMC_9 TSMC_5 TSMC_5 nch_svt_mac l=20n nfin=5 m=6 
MM23 TSMC_9 TSMC_6 TSMC_5 TSMC_5 nch_svt_mac l=20n nfin=5 m=1 
MM24 TSMC_10 TSMC_6 TSMC_5 TSMC_5 nch_svt_mac l=20n nfin=5 m=1 
MM6 TSMC_8 TSMC_10 TSMC_5 TSMC_5 nch_svt_mac l=20n nfin=5 m=6 
MM27 TSMC_11 TSMC_2 TSMC_4 TSMC_3 pch_svt_mac l=20n nfin=5 m=1 
MM34 TSMC_9 TSMC_11 TSMC_12 TSMC_3 pch_svt_mac l=20n nfin=5 m=2 
MM33 TSMC_10 TSMC_2 TSMC_12 TSMC_3 pch_svt_mac l=20n nfin=5 m=2 
MM17 TSMC_7 TSMC_9 TSMC_4 TSMC_3 pch_svt_mac l=20n nfin=5 m=6 
MM25 TSMC_12 TSMC_6 TSMC_4 TSMC_3 pch_svt_mac l=20n nfin=5 m=2 
MM5 TSMC_8 TSMC_10 TSMC_4 TSMC_3 pch_svt_mac l=20n nfin=5 m=6 
MM7 TSMC_10 TSMC_2 TSMC_5 TSMC_5 nch_svt_mac l=20n nfin=5 m=2 
MM9 TSMC_9 TSMC_11 TSMC_5 TSMC_5 nch_svt_mac l=20n nfin=5 m=2 
MM26 TSMC_11 TSMC_2 TSMC_5 TSMC_5 nch_svt_mac l=20n nfin=5 m=1 
.ENDS

************************************************************************
* Library Name: n16ff_uhd1prf_sb_leafcell
* Cell Name:    rdecb4_wdecb
* View Name:    schematic
************************************************************************

.SUBCKT S5LLSVTSW8U80_rdecb4_wdecb TSMC_1 TSMC_2 TSMC_3 TSMC_4 TSMC_5 TSMC_6 
+ TSMC_7 TSMC_8 TSMC_9 TSMC_10 TSMC_11 
MM26 TSMC_12 TSMC_4 TSMC_10 TSMC_9 pch_svt_mac l=20n nfin=3 m=4 
MM1 TSMC_7 TSMC_13 TSMC_10 TSMC_9 pch_svt_mac l=20n nfin=3 m=10 
MM32 TSMC_6 TSMC_14 TSMC_10 TSMC_9 pch_svt_mac l=20n nfin=3 m=10 
MM34 TSMC_5 TSMC_15 TSMC_10 TSMC_9 pch_svt_mac l=20n nfin=3 m=10 
MM2 TSMC_8 TSMC_16 TSMC_10 TSMC_9 pch_svt_mac l=20n nfin=3 m=10 
MM16 TSMC_17 TSMC_3 TSMC_10 TSMC_9 pch_svt_mac l=20n nfin=3 m=4 
MM14 TSMC_13 TSMC_2 TSMC_17 TSMC_9 pch_lvt_mac l=20n nfin=3 m=2 
MM24 TSMC_15 TSMC_2 TSMC_12 TSMC_9 pch_lvt_mac l=20n nfin=3 m=2 
MM25 TSMC_14 TSMC_1 TSMC_12 TSMC_9 pch_lvt_mac l=20n nfin=3 m=2 
MM15 TSMC_16 TSMC_1 TSMC_17 TSMC_9 pch_lvt_mac l=20n nfin=3 m=2 
MM23 TSMC_15 TSMC_2 TSMC_11 TSMC_11 nch_svt_mac l=20n nfin=3 m=2 
MM22 TSMC_14 TSMC_1 TSMC_11 TSMC_11 nch_svt_mac l=20n nfin=3 m=2 