**** Created by MC2: Version 2013.12.00.f on 2025/06/23, 08:34:15 

************************************************************************
* auCdl Netlist:
* 
* Library Name:  N16FF_SPSB_LEAFCELL
* Top Cell Name: LEAFCELL
* View Name:     schematic
* Netlisted on:  Jun  4 15:47:25 2014
************************************************************************

*.BIPOLAR
*.CAPA
*.DIOPERI
*.DIOAREA
*.EQUATION
*.SCALE METER
*.PARAM


*.PIN vss
.SUBCKT ndio_mac PLUS MINUS 
.ends

************************************************************************
* Library Name: N16FF_SPSB_LEAFCELL
* Cell Name:    BCELL_SD
* View Name:    schematic
************************************************************************

.SUBCKT S1ALLSVTSW40W80_BCELL_SD TSMC_1 TSMC_2 VDDAI VDDI VSSI TSMC_3 
MM5 TSMC_2 TSMC_3 TSMC_4 VSSI nchpg_hcsr_mac l=20n nfin=2 m=1 
MM0 TSMC_1 TSMC_3 TSMC_5 VSSI nchpg_hcsr_mac l=20n nfin=2 m=1 
MM2 TSMC_4 TSMC_5 VSSI VSSI nchpd_hcsr_mac l=20n nfin=2 m=1 
MM1 TSMC_5 TSMC_4 VSSI VSSI nchpd_hcsr_mac l=20n nfin=2 m=1 
MM6 TSMC_5 TSMC_4 VDDAI VDDI pchpu_hcsr_mac l=20n nfin=1 m=1 
MM4 TSMC_4 TSMC_5 VDDAI VDDI pchpu_hcsr_mac l=20n nfin=1 m=1 
.ENDS

************************************************************************
* Library Name: tsmcN16
* Cell Name:    nand3_lvt_mac_pcell_2
* View Name:    schematic
************************************************************************

.SUBCKT S1ALLSVTSW40W80_nand3_lvt_mac_pcell_2 TSMC_1 TSMC_2 TSMC_3 TSMC_4 
+ TSMC_5 TSMC_6 TSMC_7 TSMC_8 
MM3 TSMC_8 TSMC_3 TSMC_6 TSMC_7 pch_svt_mac l=p_l nfin=p_nfin m=p_totalM 
MM2 TSMC_8 TSMC_2 TSMC_6 TSMC_7 pch_svt_mac l=p_l nfin=p_nfin m=p_totalM 
MM1 TSMC_8 TSMC_1 TSMC_6 TSMC_7 pch_svt_mac l=p_l nfin=p_nfin m=p_totalM 
MM6 TSMC_9 TSMC_3 TSMC_4 TSMC_5 nch_svt_mac l=n_l nfin=n_nfin 
+ m=n_totalM 
MM5 TSMC_10 TSMC_2 TSMC_9 TSMC_5 nch_svt_mac l=n_l nfin=n_nfin 
+ m=n_totalM 
MM4 TSMC_8 TSMC_1 TSMC_10 TSMC_5 nch_svt_mac l=n_l nfin=n_nfin 
+ m=n_totalM 
.ENDS

************************************************************************
* Library Name: tsmcN16
* Cell Name:    nand2_lvt_mac_pcell_3
* View Name:    schematic
************************************************************************

.SUBCKT S1ALLSVTSW40W80_nand2_lvt_mac_pcell_3 TSMC_1 TSMC_2 TSMC_3 TSMC_4 
+ TSMC_5 TSMC_6 TSMC_7 
MM2 TSMC_7 TSMC_2 TSMC_5 TSMC_6 pch_svt_mac l=p_l nfin=p_nfin m=p_totalM 
MM1 TSMC_7 TSMC_1 TSMC_5 TSMC_6 pch_svt_mac l=p_l nfin=p_nfin m=p_totalM 
MM4 TSMC_8 TSMC_2 TSMC_3 TSMC_4 nch_svt_mac l=n_l nfin=n_nfin m=n_totalM 
MM3 TSMC_7 TSMC_1 TSMC_8 TSMC_4 nch_svt_mac l=n_l nfin=n_nfin m=n_totalM 
.ENDS

************************************************************************
* Library Name: tsmcN16
* Cell Name:    nor2_lvt_mac_pcell_5
* View Name:    schematic
************************************************************************

.SUBCKT S1ALLSVTSW40W80_nor2_lvt_mac_pcell_5 TSMC_1 TSMC_2 TSMC_3 TSMC_4 TSMC_5 
+ TSMC_6 TSMC_7 
MM2 TSMC_7 TSMC_2 TSMC_8 TSMC_6 pch_svt_mac l=p_l nfin=p_nfin m=p_totalM 
MM1 TSMC_8 TSMC_1 TSMC_5 TSMC_6 pch_svt_mac l=p_l nfin=p_nfin m=p_totalM 
MM4 TSMC_7 TSMC_2 TSMC_3 TSMC_4 nch_svt_mac l=n_l nfin=n_nfin m=n_totalM 
MM3 TSMC_7 TSMC_1 TSMC_3 TSMC_4 nch_svt_mac l=n_l nfin=n_nfin m=n_totalM 
.ENDS

************************************************************************
* Library Name: tsmcN16
* Cell Name:    inv_lvt_mac_pcell_6
* View Name:    schematic
************************************************************************

.SUBCKT S1ALLSVTSW40W80_inv_lvt_mac_pcell_6 TSMC_1 TSMC_2 TSMC_3 TSMC_4 TSMC_5 
+ TSMC_6 
MM1 TSMC_4 TSMC_3 TSMC_5 TSMC_6 pch_svt_mac l=p_l nfin=p_nfin m=p_totalM 
MM2 TSMC_4 TSMC_3 TSMC_1 TSMC_2 nch_svt_mac l=n_l nfin=n_nfin m=n_totalM 
.ENDS

************************************************************************
* Library Name: N16FF_SPSB_LEAFCELL
* Cell Name:    XDRV_LA512_884_SB
* View Name:    schematic
************************************************************************

.SUBCKT S1ALLSVTSW40W80_XDRV_LA512_884_SB TSMC_1 TSMC_2 TSMC_3 TSMC_4 TSMC_5 
+ TSMC_6 TSMC_7 TSMC_8 TSMC_9 TSMC_10 TSMC_11 TSMC_12 TSMC_13 TSMC_14 TSMC_15 
+ TSMC_16 TSMC_17 TSMC_18 TSMC_19 VDDI VSSI TSMC_20 TSMC_21 TSMC_22 TSMC_23 
+ TSMC_24 TSMC_25 TSMC_26 TSMC_27 TSMC_28 TSMC_29 
MM37 TSMC_26 TSMC_30 VDDI VDDI pch_svt_mac l=20n nfin=8 m=8 
MM36 TSMC_30 TSMC_28 VDDI VDDI pch_svt_mac l=20n nfin=7 m=1 
MM35 TSMC_22 TSMC_30 VDDI VDDI pch_svt_mac l=20n nfin=8 m=8 
MM34 TSMC_30 TSMC_31 VDDI VDDI pch_svt_mac l=20n nfin=7 m=1 
MM33 TSMC_31 TSMC_3 TSMC_32 VDDI pch_svt_mac l=20n nfin=7 m=1 
MM21 TSMC_27 TSMC_33 VDDI VDDI pch_svt_mac l=20n nfin=8 m=8 
MM16 TSMC_33 TSMC_28 VDDI VDDI pch_svt_mac l=20n nfin=7 m=1 
MM13 TSMC_23 TSMC_33 VDDI VDDI pch_svt_mac l=20n nfin=8 m=8 
MM11 TSMC_33 TSMC_34 VDDI VDDI pch_svt_mac l=20n nfin=7 m=1 
MM10 TSMC_34 TSMC_4 TSMC_32 VDDI pch_svt_mac l=20n nfin=7 m=1 
MM3 TSMC_25 TSMC_35 VDDI VDDI pch_svt_mac l=20n nfin=8 m=8 
MM2 TSMC_24 TSMC_36 VDDI VDDI pch_svt_mac l=20n nfin=8 m=8 
MM23 TSMC_21 TSMC_35 VDDI VDDI pch_svt_mac l=20n nfin=8 m=8 
MM20 TSMC_20 TSMC_36 VDDI VDDI pch_svt_mac l=20n nfin=8 m=8 
MM28 TSMC_35 TSMC_28 VDDI VDDI pch_svt_mac l=20n nfin=7 m=1 
MM27 TSMC_36 TSMC_28 VDDI VDDI pch_svt_mac l=20n nfin=7 m=1 
MM26 TSMC_35 TSMC_37 VDDI VDDI pch_svt_mac l=20n nfin=7 m=1 
MM18 TSMC_36 TSMC_38 VDDI VDDI pch_svt_mac l=20n nfin=7 m=1 
MM12 TSMC_37 TSMC_2 TSMC_32 VDDI pch_svt_mac l=20n nfin=7 m=1 
MP6 TSMC_38 TSMC_1 TSMC_32 VDDI pch_svt_mac l=20n nfin=7 m=1 
MM39 TSMC_32 TSMC_9 VDDI VDDI pch_svt_mac l=20n nfin=7 m=4 
MM32 TSMC_26 TSMC_30 VSSI VSSI nch_svt_mac l=20n nfin=10 m=4 
MM31 TSMC_22 TSMC_30 VSSI VSSI nch_svt_mac l=20n nfin=10 m=4 
MM30 TSMC_30 TSMC_31 TSMC_29 VSSI nch_svt_mac l=20n nfin=12 m=1 
MM29 TSMC_31 TSMC_9 VSSI VSSI nch_svt_mac l=20n nfin=3 m=1 
MM22 TSMC_31 TSMC_3 VSSI VSSI nch_svt_mac l=20n nfin=3 m=1 
MM9 TSMC_27 TSMC_33 VSSI VSSI nch_svt_mac l=20n nfin=10 m=4 
MM8 TSMC_23 TSMC_33 VSSI VSSI nch_svt_mac l=20n nfin=10 m=4 
MM7 TSMC_33 TSMC_34 TSMC_29 VSSI nch_svt_mac l=20n nfin=12 m=1 
MM5 TSMC_34 TSMC_9 VSSI VSSI nch_svt_mac l=20n nfin=3 m=1 
MM4 TSMC_34 TSMC_4 VSSI VSSI nch_svt_mac l=20n nfin=3 m=1 
MM1 TSMC_25 TSMC_35 VSSI VSSI nch_svt_mac l=20n nfin=10 m=4 
MM0 TSMC_24 TSMC_36 VSSI VSSI nch_svt_mac l=20n nfin=10 m=4 
MM24 TSMC_21 TSMC_35 VSSI VSSI nch_svt_mac l=20n nfin=10 m=4 
MM19 TSMC_20 TSMC_36 VSSI VSSI nch_svt_mac l=20n nfin=10 m=4 
MM25 TSMC_35 TSMC_37 TSMC_29 VSSI nch_svt_mac l=20n nfin=12 m=1 
MM17 TSMC_36 TSMC_38 TSMC_29 VSSI nch_svt_mac l=20n nfin=12 m=1 
MM14 TSMC_37 TSMC_9 VSSI VSSI nch_svt_mac l=20n nfin=3 m=1 
MM6 TSMC_38 TSMC_9 VSSI VSSI nch_svt_mac l=20n nfin=3 m=1 
MM15 TSMC_37 TSMC_2 VSSI VSSI nch_svt_mac l=20n nfin=3 m=1 
MP9 TSMC_38 TSMC_1 VSSI VSSI nch_svt_mac l=20n nfin=3 m=1 
.ENDS

************************************************************************
* Library Name: N16FF_SPSB_LEAFCELL
* Cell Name:    PRECHARGE_SB_SD
* View Name:    schematic
************************************************************************

.SUBCKT S1ALLSVTSW40W80_PRECHARGE_SB_SD TSMC_1 TSMC_2 TSMC_3 VDDAI VDDI 
MM0_HDM VDDAI TSMC_3 TSMC_1 VDDI pch_svt_mac l=20n nfin=5 m=2 
MP5_HDM TSMC_1 TSMC_3 TSMC_2 VDDI pch_svt_mac l=20n nfin=5 m=1 
MP17_HDM TSMC_2 TSMC_3 VDDAI VDDI pch_svt_mac l=20n nfin=5 m=2 
.ENDS

************************************************************************
* Library Name: N16FF_SPSB_LEAFCELL
* Cell Name:    MCB_2X4_SD
* View Name:    schematic
************************************************************************

.SUBCKT S1ALLSVTSW40W80_MCB_2X4_SD TSMC_1 TSMC_2 TSMC_3 TSMC_4 TSMC_5 TSMC_6 
+ TSMC_7 TSMC_8 VDDAI VDDI VSSI TSMC_9 TSMC_10 
XMCB_0<0> TSMC_1 TSMC_5 VDDAI VDDI VSSI TSMC_9 S1ALLSVTSW40W80_BCELL_SD 
XMCB_0<1> TSMC_2 TSMC_6 VDDAI VDDI VSSI TSMC_9 S1ALLSVTSW40W80_BCELL_SD 
XMCB_0<2> TSMC_3 TSMC_7 VDDAI VDDI VSSI TSMC_9 S1ALLSVTSW40W80_BCELL_SD 
XMCB_0<3> TSMC_4 TSMC_8 VDDAI VDDI VSSI TSMC_9 S1ALLSVTSW40W80_BCELL_SD 
XMCB_1<0> TSMC_1 TSMC_5 VDDAI VDDI VSSI TSMC_10 
+ S1ALLSVTSW40W80_BCELL_SD 
XMCB_1<1> TSMC_2 TSMC_6 VDDAI VDDI VSSI TSMC_10 
+ S1ALLSVTSW40W80_BCELL_SD 
XMCB_1<2> TSMC_3 TSMC_7 VDDAI VDDI VSSI TSMC_10 
+ S1ALLSVTSW40W80_BCELL_SD 
XMCB_1<3> TSMC_4 TSMC_8 VDDAI VDDI VSSI TSMC_10 
+ S1ALLSVTSW40W80_BCELL_SD 
.ENDS

************************************************************************
* Library Name: N16FF_SPSB_LEAFCELL
* Cell Name:    MIO_M4_SB_BUF
* View Name:    schematic
************************************************************************

.SUBCKT S1ALLSVTSW40W80_MIO_M4_SB_BUF TSMC_1 TSMC_2 TSMC_3 TSMC_4 TSMC_5 VSSI 
XI8 VSSI VSSI TSMC_6 TSMC_7 TSMC_5 TSMC_5 
+ S1ALLSVTSW40W80_inv_lvt_mac_pcell_6 n_totalM=1 n_nfin=2 n_l=20n p_totalM=1 
+ p_nfin=2 p_l=20n 
XI9 VSSI VSSI TSMC_7 TSMC_4 TSMC_5 TSMC_5 
+ S1ALLSVTSW40W80_inv_lvt_mac_pcell_6 n_totalM=1 n_nfin=2 n_l=20n p_totalM=1 
+ p_nfin=2 p_l=20n 
XI15 VSSI VSSI TSMC_8 TSMC_2 TSMC_5 TSMC_5 
+ S1ALLSVTSW40W80_inv_lvt_mac_pcell_6 n_totalM=1 n_nfin=2 n_l=20n p_totalM=1 
+ p_nfin=2 p_l=20n 
XI14 VSSI VSSI TSMC_9 TSMC_8 TSMC_5 TSMC_5 
+ S1ALLSVTSW40W80_inv_lvt_mac_pcell_6 n_totalM=1 n_nfin=2 n_l=20n p_totalM=1 
+ p_nfin=2 p_l=20n 
XI16 VSSI VSSI TSMC_3 TSMC_6 TSMC_5 TSMC_5 
+ S1ALLSVTSW40W80_inv_lvt_mac_pcell_6 n_totalM=1 n_nfin=2 n_l=20n p_totalM=1 
+ p_nfin=2 p_l=20n 
XI17 VSSI VSSI TSMC_1 TSMC_9 TSMC_5 TSMC_5 
+ S1ALLSVTSW40W80_inv_lvt_mac_pcell_6 n_totalM=1 n_nfin=2 n_l=20n p_totalM=1 
+ p_nfin=2 p_l=20n 
.ENDS

************************************************************************
* Library Name: N16FF_SPSB_LEAFCELL
* Cell Name:    DIO_TALL
* View Name:    schematic
************************************************************************

.SUBCKT S1ALLSVTSW40W80_DIO_TALL TSMC_1 TSMC_2 
XDDIO_TALL TSMC_2 TSMC_1 ndio_mac nfin=2 l=2e-07 m=1 
.ENDS

************************************************************************
* Library Name: N16FF_SPSB_LEAFCELL
* Cell Name:    XDRV_STRAP_BT_SB
* View Name:    schematic
************************************************************************

.SUBCKT S1ALLSVTSW40W80_XDRV_STRAP_BT_SB TSMC_1 TSMC_2 VDDI VSSI 
MM0 TSMC_2 TSMC_1 VSSI VSSI nch_svt_mac l=20n nfin=12 m=4 
MM10 TSMC_2 TSMC_1 VSSI VSSI nch_svt_mac l=20n nfin=6 m=12 
MM1 TSMC_2 TSMC_1 VDDI VDDI pch_svt_mac l=20n nfin=3 m=10 
.ENDS

************************************************************************
* Library Name: N16FF_SPSB_LEAFCELL
* Cell Name:    RESETD_WTSEL_SB_NEW
* View Name:    schematic
************************************************************************

.SUBCKT S1ALLSVTSW40W80_RESETD_WTSEL_SB_NEW TSMC_1 TSMC_2 VDDHD VDDI VSSI 
+ TSMC_3 TSMC_4 
XI87 TSMC_5 TSMC_6 VSSI VSSI VDDHD VDDI TSMC_7 
+ S1ALLSVTSW40W80_nand2_lvt_mac_pcell_3 n_totalM=1 n_nfin=3 n_l=20n p_totalM=1 
+ p_nfin=3 p_l=20n 
XND5 TSMC_4 TSMC_8 VSSI VSSI VDDHD VDDI TSMC_5 
+ S1ALLSVTSW40W80_nand2_lvt_mac_pcell_3 n_totalM=1 n_nfin=3 n_l=20n p_totalM=1 
+ p_nfin=3 p_l=20n 
XI84 TSMC_3 TSMC_9 VSSI VSSI VDDHD VDDI TSMC_6 
+ S1ALLSVTSW40W80_nand2_lvt_mac_pcell_3 n_totalM=1 n_nfin=3 n_l=20n p_totalM=1 
+ p_nfin=3 p_l=20n 
XND0 TSMC_5 TSMC_1 VSSI VSSI VDDHD VDDI TSMC_9 
+ S1ALLSVTSW40W80_nand2_lvt_mac_pcell_3 n_totalM=1 n_nfin=3 n_l=20n p_totalM=1 
+ p_nfin=3 p_l=20n 
XI89 VSSI VSSI TSMC_7 TSMC_2 VDDHD VDDI 
+ S1ALLSVTSW40W80_inv_lvt_mac_pcell_6 n_totalM=1 n_nfin=3 n_l=20n p_totalM=1 
+ p_nfin=3 p_l=20n 
XI65 VSSI VSSI TSMC_10 TSMC_11 VDDHD VDDI 
+ S1ALLSVTSW40W80_inv_lvt_mac_pcell_6 n_totalM=1 n_nfin=3 n_l=20n p_totalM=1 
+ p_nfin=3 p_l=20n 
XI83 VSSI VSSI TSMC_11 TSMC_8 VDDHD VDDI 
+ S1ALLSVTSW40W80_inv_lvt_mac_pcell_6 n_totalM=1 n_nfin=3 n_l=20n p_totalM=1 
+ p_nfin=3 p_l=20n 
XI64 VSSI VSSI TSMC_1 TSMC_10 VDDHD VDDI 
+ S1ALLSVTSW40W80_inv_lvt_mac_pcell_6 n_totalM=1 n_nfin=3 n_l=20n p_totalM=1 
+ p_nfin=3 p_l=20n 
.ENDS

************************************************************************
* Library Name: N16FF_SPSB_LEAFCELL
* Cell Name:    RESETD_TSEL
* View Name:    schematic
************************************************************************

.SUBCKT S1ALLSVTSW40W80_RESETD_TSEL TSMC_1 TSMC_2 TSMC_3 VDDHD VDDI VSSI TSMC_4 
+ TSMC_5 
MM15 TSMC_6 TSMC_1 TSMC_7 VDDI pch_svt_mac l=20n nfin=3 m=1 
MM14 TSMC_7 TSMC_1 VDDHD VDDI pch_svt_mac l=20n nfin=3 m=1 
MM25 TSMC_4 TSMC_2 VDDHD VDDI pch_svt_mac l=20n nfin=3 m=1 
MM23 TSMC_4 TSMC_8 VDDHD VDDI pch_svt_mac l=20n nfin=3 m=1 
MM18 TSMC_6 TSMC_1 TSMC_9 VSSI nch_svt_mac l=20n nfin=3 m=1 
MM19 TSMC_9 TSMC_1 VSSI VSSI nch_svt_mac l=20n nfin=3 m=1 
MM24 TSMC_10 TSMC_8 VSSI VSSI nch_svt_mac l=20n nfin=3 m=1 
MM21 TSMC_4 TSMC_2 TSMC_10 VSSI nch_svt_mac l=20n nfin=3 m=1 
XI737 VSSI VSSI TSMC_11 TSMC_5 VDDHD VDDI 
+ S1ALLSVTSW40W80_inv_lvt_mac_pcell_6 n_totalM=1 n_nfin=3 n_l=20n p_totalM=1 
+ p_nfin=3 p_l=20n 
XI736 VSSI VSSI TSMC_12 TSMC_11 VDDHD VDDI 
+ S1ALLSVTSW40W80_inv_lvt_mac_pcell_6 n_totalM=1 n_nfin=3 n_l=20n p_totalM=1 
+ p_nfin=3 p_l=20n 
XND0 TSMC_1 TSMC_5 VSSI VSSI VDDHD VDDI TSMC_8 
+ S1ALLSVTSW40W80_nand2_lvt_mac_pcell_3 n_totalM=1 n_nfin=3 n_l=20n p_totalM=1 
+ p_nfin=3 p_l=20n 
XI91 TSMC_3 TSMC_6 VSSI VSSI VDDHD VDDI TSMC_12 
+ S1ALLSVTSW40W80_nand2_lvt_mac_pcell_3 n_totalM=1 n_nfin=3 n_l=20n p_totalM=1 
+ p_nfin=3 p_l=20n 
.ENDS

************************************************************************
* Library Name: N16FF_SPSB_LEAFCELL
* Cell Name:    WEBBUF_SB_BASE
* View Name:    schematic
************************************************************************

.SUBCKT S1ALLSVTSW40W80_WEBBUF_SB_BASE TSMC_1 TSMC_2 VDDHD VDDI VSSI TSMC_3 
+ TSMC_4 TSMC_5 
MM36 TSMC_6 TSMC_7 VSSI VSSI nch_svt_mac l=20n nfin=3 m=1 
MM35 TSMC_8 TSMC_2 TSMC_6 VSSI nch_svt_mac l=20n nfin=3 m=1 
MM31 TSMC_9 TSMC_1 VSSI VSSI nch_svt_mac l=20n nfin=5 m=2 
MM30 TSMC_8 TSMC_3 TSMC_9 VSSI nch_svt_mac l=20n nfin=5 m=1 
MM34 TSMC_10 TSMC_7 VDDHD VDDI pch_svt_mac l=20n nfin=3 m=1 
MM33 TSMC_8 TSMC_1 TSMC_10 VDDI pch_svt_mac l=20n nfin=3 m=1 
MM6 TSMC_8 TSMC_3 TSMC_11 VDDI pch_svt_mac l=20n nfin=5 m=1 
MM32 TSMC_11 TSMC_2 VDDHD VDDI pch_svt_mac l=20n nfin=5 m=2 
XI25 VSSI VSSI TSMC_8 TSMC_7 VDDHD VDDI 
+ S1ALLSVTSW40W80_inv_lvt_mac_pcell_6 n_totalM=1 n_nfin=3 n_l=20n p_totalM=1 
+ p_nfin=3 p_l=20n 
XI32 VSSI VSSI TSMC_8 TSMC_5 VDDHD VDDI 
+ S1ALLSVTSW40W80_inv_lvt_mac_pcell_6 n_totalM=2 n_nfin=4 n_l=20n p_totalM=2 
+ p_nfin=7 p_l=20n 
XI33 VSSI VSSI TSMC_5 TSMC_4 VDDHD VDDI 
+ S1ALLSVTSW40W80_inv_lvt_mac_pcell_6 n_totalM=1 n_nfin=4 n_l=20n p_totalM=1 
+ p_nfin=7 p_l=20n 
.ENDS

************************************************************************
* Library Name: N16FF_SPSB_LEAFCELL
* Cell Name:    DECB4_SB
* View Name:    schematic
************************************************************************

.SUBCKT S1ALLSVTSW40W80_DECB4_SB TSMC_1 TSMC_2 TSMC_3 TSMC_4 TSMC_5 TSMC_6 
+ TSMC_7 TSMC_8 TSMC_9 VDDHD VDDI VSSI 
MM15 TSMC_10 TSMC_4 VDDHD VDDI pch_svt_mac l=20n nfin=3 m=1 
MM16 TSMC_10 TSMC_2 VDDHD VDDI pch_svt_mac l=20n nfin=3 m=1 
MM17 TSMC_11 TSMC_4 VDDHD VDDI pch_svt_mac l=20n nfin=3 m=1 
MM18 TSMC_11 TSMC_1 VDDHD VDDI pch_svt_mac l=20n nfin=3 m=1 
MM22 TSMC_11 TSMC_5 VDDHD VDDI pch_svt_mac l=20n nfin=3 m=1 
MM23 TSMC_10 TSMC_5 VDDHD VDDI pch_svt_mac l=20n nfin=3 m=1 
MM24 TSMC_12 TSMC_5 VDDHD VDDI pch_svt_mac l=20n nfin=3 m=1 
MM25 TSMC_13 TSMC_5 VDDHD VDDI pch_svt_mac l=20n nfin=3 m=1 
MM5 TSMC_12 TSMC_3 VDDHD VDDI pch_svt_mac l=20n nfin=3 m=1 
MM4 TSMC_12 TSMC_2 VDDHD VDDI pch_svt_mac l=20n nfin=3 m=1 
MM2 TSMC_13 TSMC_3 VDDHD VDDI pch_svt_mac l=20n nfin=3 m=1 
MM1 TSMC_13 TSMC_1 VDDHD VDDI pch_svt_mac l=20n nfin=3 m=1 
MM19 TSMC_14 TSMC_4 TSMC_15 VSSI nch_svt_mac l=20n nfin=3 m=2 
MM20 TSMC_10 TSMC_2 TSMC_14 VSSI nch_svt_mac l=20n nfin=3 m=1 
MM21 TSMC_11 TSMC_1 TSMC_14 VSSI nch_svt_mac l=20n nfin=3 m=1 
MM26 TSMC_15 TSMC_5 VSSI VSSI nch_svt_mac l=20n nfin=3 m=4 
MM8 TSMC_16 TSMC_3 TSMC_15 VSSI nch_svt_mac l=20n nfin=3 m=2 
MM7 TSMC_12 TSMC_2 TSMC_16 VSSI nch_svt_mac l=20n nfin=3 m=1 
MM0 TSMC_13 TSMC_1 TSMC_16 VSSI nch_svt_mac l=20n nfin=3 m=1 
XINV3 VSSI VSSI TSMC_10 TSMC_9 VDDHD VDDI 
+ S1ALLSVTSW40W80_inv_lvt_mac_pcell_6 n_totalM=1 n_nfin=3 n_l=20n p_totalM=2 
+ p_nfin=3 p_l=20n 
XINV2 VSSI VSSI TSMC_11 TSMC_8 VDDHD VDDI 
+ S1ALLSVTSW40W80_inv_lvt_mac_pcell_6 n_totalM=1 n_nfin=3 n_l=20n p_totalM=2 
+ p_nfin=3 p_l=20n 
XINV1 VSSI VSSI TSMC_12 TSMC_7 VDDHD VDDI 
+ S1ALLSVTSW40W80_inv_lvt_mac_pcell_6 n_totalM=1 n_nfin=3 n_l=20n p_totalM=2 
+ p_nfin=3 p_l=20n 
XINV0 VSSI VSSI TSMC_13 TSMC_6 VDDHD VDDI 
+ S1ALLSVTSW40W80_inv_lvt_mac_pcell_6 n_totalM=1 n_nfin=3 n_l=20n p_totalM=2 
+ p_nfin=3 p_l=20n 
.ENDS

************************************************************************
* Library Name: N16FF_SPSB_LEAFCELL
* Cell Name:    DECB1_SB
* View Name:    schematic
************************************************************************

.SUBCKT S1ALLSVTSW40W80_DECB1_SB TSMC_1 TSMC_2 TSMC_3 TSMC_4 TSMC_5 TSMC_6 
+ TSMC_7 VDDHD VDDI VSSI 
MTN1 TSMC_8 TSMC_1 TSMC_9 VSSI nch_ulvt_mac l=20n nfin=3 m=1 
MTN2 TSMC_9 TSMC_7 TSMC_5 VSSI nch_ulvt_mac l=20n nfin=7 m=2 
MM0 TSMC_8 TSMC_2 TSMC_9 VSSI nch_ulvt_mac l=20n nfin=7 m=2 
MN0 TSMC_3 TSMC_8 VSSI VSSI nch_svt_mac l=20n nfin=8 m=4 
MM1 TSMC_10 TSMC_2 VDDHD VDDI pch_svt_mac l=20n nfin=3 m=1 
MM3 TSMC_8 TSMC_7 VDDHD VDDI pch_svt_mac l=20n nfin=3 m=1 
MP0 TSMC_3 TSMC_8 VDDHD VDDI pch_svt_mac l=20n nfin=8 m=6 
MP5 TSMC_8 TSMC_4 VDDHD VDDI pch_svt_mac l=20n nfin=3 m=2 
MM2 TSMC_8 TSMC_1 TSMC_10 VDDI pch_svt_mac l=20n nfin=3 m=1 
.ENDS

************************************************************************
* Library Name: N16FF_SPSB_LEAFCELL
* Cell Name:    DECB2_SB
* View Name:    schematic
************************************************************************

.SUBCKT S1ALLSVTSW40W80_DECB2_SB TSMC_1 TSMC_2 TSMC_3 TSMC_4 TSMC_5 VDDHD VDDI 
+ VSSI 
MM2 TSMC_6 TSMC_3 VDDHD VDDI pch_svt_mac l=20n nfin=3 m=1 
MM1 TSMC_6 TSMC_1 VDDHD VDDI pch_svt_mac l=20n nfin=3 m=1 
MM5 TSMC_7 TSMC_3 VDDHD VDDI pch_svt_mac l=20n nfin=3 m=1 
MM4 TSMC_7 TSMC_2 VDDHD VDDI pch_svt_mac l=20n nfin=3 m=1 
MM0 TSMC_6 TSMC_1 TSMC_8 VSSI nch_svt_mac l=20n nfin=3 m=1 
MM7 TSMC_7 TSMC_2 TSMC_8 VSSI nch_svt_mac l=20n nfin=3 m=1 
MM8 TSMC_8 TSMC_3 VSSI VSSI nch_svt_mac l=20n nfin=3 m=2 
XINV0 VSSI VSSI TSMC_7 TSMC_5 VDDHD VDDI 
+ S1ALLSVTSW40W80_inv_lvt_mac_pcell_6 n_totalM=1 n_nfin=3 n_l=20n p_totalM=2 
+ p_nfin=3 p_l=20n 
XINV1 VSSI VSSI TSMC_6 TSMC_4 VDDHD VDDI 
+ S1ALLSVTSW40W80_inv_lvt_mac_pcell_6 n_totalM=1 n_nfin=3 n_l=20n p_totalM=2 
+ p_nfin=3 p_l=20n 
.ENDS

************************************************************************
* Library Name: N16FF_SPSB_LEAFCELL
* Cell Name:    DECB1_BLEQ_SB_M4
* View Name:    schematic
************************************************************************

.SUBCKT S1ALLSVTSW40W80_DECB1_BLEQ_SB_M4 TSMC_1 TSMC_2 TSMC_3 TSMC_4 TSMC_5 
+ TSMC_6 VDDHD VDDI VSSI 
MN0 TSMC_1 TSMC_7 VSSI VSSI nch_svt_mac l=20n nfin=8 m=4 
MTN1 TSMC_7 TSMC_3 TSMC_6 VSSI nch_ulvt_mac l=20n nfin=3 m=1 
MM0 TSMC_7 TSMC_4 TSMC_6 VSSI nch_ulvt_mac l=20n nfin=6 m=2 
MM2 TSMC_2 TSMC_7 VSSI VSSI nch_svt_mac l=20n nfin=8 m=4 
MP0 TSMC_1 TSMC_7 VDDHD VDDI pch_svt_mac l=20n nfin=8 m=6 
MM4 TSMC_7 TSMC_5 VDDHD VDDI pch_svt_mac l=20n nfin=3 m=2 
MM3 TSMC_7 TSMC_3 TSMC_8 VDDI pch_svt_mac l=20n nfin=3 m=1 
MM1 TSMC_8 TSMC_4 VDDHD VDDI pch_svt_mac l=20n nfin=3 m=1 
MM5 TSMC_2 TSMC_7 VDDHD VDDI pch_svt_mac l=20n nfin=8 m=6 
.ENDS

************************************************************************
* Library Name: N16FF_SPSB_LEAFCELL
* Cell Name:    DECB1_WLNAD2_SB_X0
* View Name:    schematic
************************************************************************

.SUBCKT S1ALLSVTSW40W80_DECB1_WLNAD2_SB_X0 TSMC_1 TSMC_2 TSMC_3 TSMC_4 TSMC_5 
+ TSMC_6 TSMC_7 VDDHD VDDI VSSI 
MM5 TSMC_8 TSMC_9 VSSI VSSI nch_svt_mac l=20n nfin=6 m=1 
MTN1 TSMC_9 TSMC_1 TSMC_10 VSSI nch_ulvt_mac l=20n nfin=3 m=1 
MTN2 TSMC_10 TSMC_7 TSMC_5 VSSI nch_ulvt_mac l=20n nfin=6 m=2 
MM0 TSMC_9 TSMC_2 TSMC_10 VSSI nch_ulvt_mac l=20n nfin=6 m=2 
MN0 TSMC_3 TSMC_8 VSSI VSSI nch_svt_mac l=20n nfin=8 m=6 
MM4 TSMC_8 TSMC_9 VDDHD VDDI pch_svt_mac l=20n nfin=3 m=4 
MM1 TSMC_11 TSMC_2 VDDHD VDDI pch_svt_mac l=20n nfin=3 m=1 
MM3 TSMC_9 TSMC_7 VDDHD VDDI pch_svt_mac l=20n nfin=3 m=1 
MP0 TSMC_3 TSMC_8 VDDHD VDDI pch_svt_mac l=20n nfin=8 m=3 
MP5 TSMC_9 TSMC_4 VDDHD VDDI pch_svt_mac l=20n nfin=3 m=2 
MM2 TSMC_9 TSMC_1 TSMC_11 VDDI pch_svt_mac l=20n nfin=3 m=1 
.ENDS

************************************************************************
* Library Name: N16FF_SPSB_LEAFCELL
* Cell Name:    CKBUF_SB
* View Name:    schematic
************************************************************************

.SUBCKT S1ALLSVTSW40W80_CKBUF_SB TSMC_1 TSMC_2 TSMC_3 TSMC_4 VDDHD VDDI VSSI 
XINV0 VSSI VSSI TSMC_1 TSMC_2 VDDHD VDDI 
+ S1ALLSVTSW40W80_inv_lvt_mac_pcell_6 n_totalM=2 n_nfin=7 n_l=20n p_totalM=3 
+ p_nfin=9 p_l=20n 
MM1 TSMC_1 TSMC_3 VSSI VSSI nch_svt_mac l=20n nfin=3 m=1 
MM34 TSMC_1 TSMC_4 VSSI VSSI nch_svt_mac l=20n nfin=7 m=2 
MM26 TSMC_5 TSMC_3 VDDHD VDDI pch_svt_mac l=20n nfin=9 m=2 
MM0 TSMC_1 TSMC_4 TSMC_5 VDDI pch_svt_mac l=20n nfin=9 m=2 
.ENDS

************************************************************************
* Library Name: N16FF_SPSB_LEAFCELL
* Cell Name:    ABUF_SB_BASE
* View Name:    schematic
************************************************************************

.SUBCKT S1ALLSVTSW40W80_ABUF_SB_BASE TSMC_1 TSMC_2 TSMC_3 TSMC_4 TSMC_5 TSMC_6 
+ TSMC_7 VSSI 
MM15 TSMC_8 TSMC_9 VSSI VSSI nch_svt_mac l=20n nfin=3 m=1 
MM14 TSMC_3 TSMC_5 TSMC_8 VSSI nch_svt_mac l=20n nfin=3 m=1 
MM9 TSMC_10 TSMC_4 VSSI VSSI nch_svt_mac l=20n nfin=4 m=1 
MM8 TSMC_3 TSMC_1 TSMC_10 VSSI nch_svt_mac l=20n nfin=4 m=1 
MM13 TSMC_11 TSMC_9 TSMC_7 TSMC_6 pch_svt_mac l=20n nfin=3 m=1 
MM12 TSMC_3 TSMC_4 TSMC_11 TSMC_6 pch_svt_mac l=20n nfin=3 m=1 
MM11 TSMC_3 TSMC_1 TSMC_12 TSMC_6 pch_svt_mac l=20n nfin=5 m=1 
MM10 TSMC_12 TSMC_5 TSMC_7 TSMC_6 pch_svt_mac l=20n nfin=5 m=2 
XI34 VSSI VSSI TSMC_3 TSMC_9 TSMC_7 TSMC_6 
+ S1ALLSVTSW40W80_inv_lvt_mac_pcell_6 n_totalM=1 n_nfin=3 n_l=20n p_totalM=1 
+ p_nfin=3 p_l=20n 
XI35 VSSI VSSI TSMC_3 TSMC_2 TSMC_7 TSMC_6 
+ S1ALLSVTSW40W80_inv_lvt_mac_pcell_6 n_totalM=1 n_nfin=4 n_l=20n p_totalM=2 
+ p_nfin=3 p_l=20n 
.ENDS

************************************************************************
* Library Name: N16FF_SPSB_LEAFCELL
* Cell Name:    ENBUFB_BASE
* View Name:    schematic
************************************************************************

.SUBCKT S1ALLSVTSW40W80_ENBUFB_BASE TSMC_1 TSMC_2 TSMC_3 TSMC_4 TSMC_5 TSMC_6 
+ TSMC_7 TSMC_8 VDDHD VDDI VSSI 
XI158 TSMC_9 TSMC_9 VSSI VSSI VDDHD VDDI TSMC_10 
+ S1ALLSVTSW40W80_nor2_lvt_mac_pcell_5 n_totalM=1 n_nfin=3 n_l=20n p_totalM=1 
+ p_nfin=3 p_l=20n 
MM19 TSMC_11 TSMC_3 VDDI VDDI pch_svt_mac l=20n nfin=6 m=1 
MM2 TSMC_12 TSMC_4 VDDI VDDI pch_svt_mac l=20n nfin=3 m=1 
MM7 TSMC_13 TSMC_8 VDDI VDDI pch_svt_mac l=20n nfin=5 m=1 
MM16 TSMC_13 TSMC_1 TSMC_11 VDDI pch_svt_mac l=20n nfin=6 m=1 
MM1 TSMC_13 TSMC_2 TSMC_12 VDDI pch_svt_mac l=20n nfin=3 m=1 
MM5 TSMC_14 TSMC_8 VSSI VSSI nch_svt_mac l=20n nfin=3 m=1 
MN200 TSMC_6 TSMC_4 VSSI VSSI nch_ulvt_mac l=20n nfin=7 m=2 
MM4 TSMC_15 TSMC_4 TSMC_14 VSSI nch_svt_mac l=20n nfin=3 m=1 
MM3 TSMC_13 TSMC_3 TSMC_15 VSSI nch_svt_mac l=20n nfin=3 m=1 
MM20 TSMC_16 TSMC_8 VSSI VSSI nch_svt_mac l=20n nfin=7 m=1 
MM17 TSMC_13 TSMC_1 TSMC_17 VSSI nch_svt_mac l=20n nfin=4 m=1 
MM18 TSMC_17 TSMC_2 TSMC_16 VSSI nch_svt_mac l=20n nfin=4 m=1 
MN300 TSMC_5 TSMC_4 VSSI VSSI nch_ulvt_mac l=20n nfin=11 m=6 
XI166 VSSI VSSI TSMC_18 TSMC_9 VDDHD VDDI 
+ S1ALLSVTSW40W80_inv_lvt_mac_pcell_6 n_totalM=1 n_nfin=3 n_l=20n p_totalM=1 
+ p_nfin=3 p_l=20n 
XI148 VSSI VSSI TSMC_4 TSMC_18 VDDHD VDDI 
+ S1ALLSVTSW40W80_inv_lvt_mac_pcell_6 n_totalM=1 n_nfin=3 n_l=20n p_totalM=1 
+ p_nfin=3 p_l=20n 
XI152 VSSI VSSI TSMC_19 TSMC_7 VDDHD VDDI 
+ S1ALLSVTSW40W80_inv_lvt_mac_pcell_6 n_totalM=4 n_nfin=4 n_l=20n p_totalM=4 
+ p_nfin=8 p_l=20n 
XINV5 VSSI VSSI TSMC_4 TSMC_19 VDDI VDDI 
+ S1ALLSVTSW40W80_inv_lvt_mac_pcell_6 n_totalM=1 n_nfin=3 n_l=20n p_totalM=3 
+ p_nfin=3 p_l=20n 
XINV4 VSSI VSSI TSMC_10 TSMC_20 VDDHD VDDI 
+ S1ALLSVTSW40W80_inv_lvt_mac_pcell_6 n_totalM=1 n_nfin=3 n_l=20n p_totalM=1 
+ p_nfin=3 p_l=20n 
XI141 VSSI VSSI TSMC_13 TSMC_4 VDDI VDDI 
+ S1ALLSVTSW40W80_inv_lvt_mac_pcell_6 n_totalM=2 n_nfin=7 n_l=20n p_totalM=3 
+ p_nfin=9 p_l=20n 
.ENDS

************************************************************************
* Library Name: N16FF_SPSB_LEAFCELL
* Cell Name:    DECB1_WLNAD2_SB_X1
* View Name:    schematic
************************************************************************

.SUBCKT S1ALLSVTSW40W80_DECB1_WLNAD2_SB_X1 TSMC_1 TSMC_2 TSMC_3 TSMC_4 TSMC_5 
+ TSMC_6 TSMC_7 VDDHD VDDI VSSI 
MM5 TSMC_8 TSMC_9 VSSI VSSI nch_svt_mac l=20n nfin=6 m=1 
MTN1 TSMC_9 TSMC_1 TSMC_10 VSSI nch_ulvt_mac l=20n nfin=3 m=1 
MTN2 TSMC_10 TSMC_7 TSMC_5 VSSI nch_ulvt_mac l=20n nfin=6 m=2 
MM0 TSMC_9 TSMC_2 TSMC_10 VSSI nch_ulvt_mac l=20n nfin=6 m=2 
MN0 TSMC_3 TSMC_8 VSSI VSSI nch_svt_mac l=20n nfin=8 m=6 
MM4 TSMC_8 TSMC_9 VDDHD VDDI pch_svt_mac l=20n nfin=3 m=4 
MM1 TSMC_11 TSMC_2 VDDHD VDDI pch_svt_mac l=20n nfin=3 m=1 
MM3 TSMC_9 TSMC_7 VDDHD VDDI pch_svt_mac l=20n nfin=3 m=1 
MP0 TSMC_3 TSMC_8 VDDHD VDDI pch_svt_mac l=20n nfin=8 m=3 
MP5 TSMC_9 TSMC_4 VDDHD VDDI pch_svt_mac l=20n nfin=3 m=2 
MM2 TSMC_9 TSMC_1 TSMC_11 VDDI pch_svt_mac l=20n nfin=3 m=1 
.ENDS

************************************************************************
* Library Name: N16FF_SPSB_LEAFCELL
* Cell Name:    MIO_SB_EDGE
* View Name:    schematic
************************************************************************

.SUBCKT S1ALLSVTSW40W80_MIO_SB_EDGE VDDI TSMC_1 TSMC_2 VSSI 
MP0 TSMC_3 TSMC_3 VDDI VDDI pch_svt_mac l=20n nfin=3 m=1 
MP2 TSMC_4 TSMC_5 VDDI VDDI pch_svt_mac l=20n nfin=3 m=6 
MP7 TSMC_3 TSMC_5 VDDI VDDI pch_svt_mac l=20n nfin=3 m=1 
MN3 VSSI TSMC_3 TSMC_5 VSSI nch_svt_mac l=20n nfin=3 m=1 
MN1 VSSI TSMC_3 TSMC_6 VSSI nch_svt_mac l=20n nfin=3 m=5 
MN0 VSSI TSMC_5 TSMC_5 VSSI nch_svt_mac l=20n nfin=3 m=1 
XI18 VSSI VSSI TSMC_4 TSMC_2 VDDI VDDI 
+ S1ALLSVTSW40W80_inv_lvt_mac_pcell_6 n_totalM=8 n_nfin=3 n_l=20n p_totalM=2 
+ p_nfin=3 p_l=20n 
XI393 VSSI VSSI TSMC_6 TSMC_1 VDDI VDDI 
+ S1ALLSVTSW40W80_inv_lvt_mac_pcell_6 n_totalM=1 n_nfin=3 n_l=20n p_totalM=4 
+ p_nfin=3 p_l=20n 
.ENDS

************************************************************************
* Library Name: N16FF_SPSB_LEAFCELL
* Cell Name:    CKG_SB
* View Name:    schematic
************************************************************************

.SUBCKT S1ALLSVTSW40W80_CKG_SB TSMC_1 TSMC_2 TSMC_3 TSMC_4 TSMC_5 VDDHD VDDI 
+ VSSI 
XI58 VSSI VSSI TSMC_6 TSMC_4 VDDHD VDDI 
+ S1ALLSVTSW40W80_inv_lvt_mac_pcell_6 n_totalM=2 n_nfin=3 n_l=20n p_totalM=1 
+ p_nfin=3 p_l=20n 
MM0 TSMC_1 TSMC_7 VDDHD VDDI pch_svt_mac l=16.0n nfin=4 m=1 
MM26 TSMC_1 TSMC_8 VDDHD VDDI pch_svt_mac l=16.0n nfin=4 m=4 
MM1 TSMC_9 TSMC_8 VSSI VSSI nch_svt_mac l=16.0n nfin=8 m=3 
MM34 TSMC_1 TSMC_7 TSMC_9 VSSI nch_svt_mac l=16.0n nfin=8 m=3 
XNAND2 TSMC_2 TSMC_6 VSSI VSSI VDDHD VDDI TSMC_10 
+ S1ALLSVTSW40W80_nand2_lvt_mac_pcell_3 n_totalM=1 n_nfin=3 n_l=20n p_totalM=1 
+ p_nfin=3 p_l=20n 
XNAND5 TSMC_4 TSMC_1 VSSI VSSI VDDI VDDI TSMC_7 
+ S1ALLSVTSW40W80_nand2_lvt_mac_pcell_3 n_totalM=1 n_nfin=3 n_l=20n p_totalM=1 
+ p_nfin=3 p_l=20n 
XNAND0 TSMC_1 TSMC_5 VSSI VSSI VDDHD VDDI TSMC_11 
+ S1ALLSVTSW40W80_nand2_lvt_mac_pcell_3 n_totalM=1 n_nfin=3 n_l=20n p_totalM=1 
+ p_nfin=3 p_l=20n 
XNAND3 TSMC_10 TSMC_11 VSSI VSSI VDDHD VDDI TSMC_6 
+ S1ALLSVTSW40W80_nand2_lvt_mac_pcell_3 n_totalM=1 n_nfin=3 n_l=20n p_totalM=1 
+ p_nfin=3 p_l=20n 
XNAND12 TSMC_2 TSMC_3 TSMC_4 VSSI VSSI VDDI VDDI TSMC_8 
+ S1ALLSVTSW40W80_nand3_lvt_mac_pcell_2 n_totalM=1 n_nfin=10 n_l=16.0n 
+ p_totalM=1 p_nfin=4 p_l=16.0n 
.ENDS

************************************************************************
* Library Name: N16FF_SPSB_LEAFCELL
* Cell Name:    RESETD_884_M4_SB_NBL
* View Name:    schematic
************************************************************************

.SUBCKT S1ALLSVTSW40W80_RESETD_884_M4_SB_NBL TSMC_1 TSMC_2 TSMC_3 TSMC_4 TSMC_5 
+ TSMC_6 TSMC_7 TSMC_8 TSMC_9 TSMC_10 TSMC_11 VDDHD VDDI VSSI TSMC_12 TSMC_13 
+ TSMC_14 TSMC_15 TSMC_16 TSMC_17 TSMC_18 
XTSEL_WT TSMC_19 TSMC_20 VDDHD VDDI VSSI TSMC_16 TSMC_17 
+ S1ALLSVTSW40W80_RESETD_WTSEL_SB_NEW 
MM10 TSMC_21 TSMC_9 TSMC_11 VDDI pch_svt_mac l=16.0n nfin=3 m=1 
MP0 TSMC_11 TSMC_1 VDDI VDDI pch_svt_mac l=20n nfin=4 m=3 
MM0 TSMC_22 TSMC_23 VDDHD VDDI pch_svt_mac l=20n nfin=5 m=1 
MI537 TSMC_1 TSMC_23 VDDHD VDDI pch_svt_mac l=16.0n nfin=8 m=4 
MM5 TSMC_21 TSMC_24 TSMC_25 VDDI pch_svt_mac l=20n nfin=3 m=1 
XTSEL_READ TSMC_3 TSMC_14 TSMC_15 VDDHD VDDI VSSI TSMC_26 TSMC_27 
+ S1ALLSVTSW40W80_RESETD_TSEL 
MM12 TSMC_21 TSMC_24 TSMC_11 VSSI nch_svt_mac l=16.0n nfin=4 m=2 
MM11 TSMC_1 TSMC_23 VSSI VSSI nch_svt_mac l=16.0n nfin=5 m=4 
MM4 TSMC_21 TSMC_9 TSMC_25 VSSI nch_svt_mac l=20n nfin=4 m=2 
MM1 TSMC_8 TSMC_23 VSSI VSSI nch_svt_mac l=20n nfin=5 m=1 
XNAND3 TSMC_27 TSMC_26 TSMC_3 VSSI VSSI VDDI VDDI TSMC_23 
+ S1ALLSVTSW40W80_nand3_lvt_mac_pcell_2 n_totalM=2 n_nfin=9 n_l=16.0n 
+ p_totalM=2 p_nfin=3 p_l=16.0n 
XI667 TSMC_19 TSMC_2 TSMC_28 VSSI VSSI VDDHD VDDI TSMC_29 
+ S1ALLSVTSW40W80_nand3_lvt_mac_pcell_2 n_totalM=1 n_nfin=9 n_l=16.0n 
+ p_totalM=1 p_nfin=3 p_l=16.0n 
XI696 TSMC_19 TSMC_20 VSSI VSSI VDDHD VDDI TSMC_30 
+ S1ALLSVTSW40W80_nand2_lvt_mac_pcell_3 n_totalM=1 n_nfin=3 n_l=20n p_totalM=1 
+ p_nfin=3 p_l=20n 
XI658 TSMC_18 TSMC_1 VSSI VSSI VDDHD VDDI TSMC_31 
+ S1ALLSVTSW40W80_nand2_lvt_mac_pcell_3 n_totalM=1 n_nfin=3 n_l=20n p_totalM=1 
+ p_nfin=3 p_l=20n 
XI728 TSMC_1 TSMC_32 VSSI VSSI VDDHD VDDI TSMC_25 
+ S1ALLSVTSW40W80_nand2_lvt_mac_pcell_3 n_totalM=1 n_nfin=3 n_l=20n p_totalM=1 
+ p_nfin=3 p_l=20n 
XI666 TSMC_29 TSMC_33 VSSI VSSI VDDHD VDDI TSMC_34 
+ S1ALLSVTSW40W80_nand2_lvt_mac_pcell_3 n_totalM=1 n_nfin=3 n_l=16.0n 
+ p_totalM=1 p_nfin=3 p_l=16.0n 
XI654 TSMC_31 TSMC_30 VSSI VSSI TSMC_22 VDDI TSMC_8 
+ S1ALLSVTSW40W80_nand2_lvt_mac_pcell_3 n_totalM=1 n_nfin=5 n_l=20n p_totalM=1 
+ p_nfin=5 p_l=20n 