**** Created by MC2: Version 2013.12.00.f on 2025/06/18, 12:43:53 

************************************************************************
* auCdl Netlist:
* 
* Library Name:  TS16FF2PRF
* Top Cell Name: all_leafcells
* View Name:     schematic
* Netlisted on:  Sep 30 16:22:09 2015
************************************************************************

*.BIPOLAR
*.CAPA
*.DIOPERI
*.DIOAREA
*.EQUATION
*.SCALE METER
*.PARAM


*.PIN vss

************************************************************************
* Library Name: tsmcN16
* Cell Name:    nand2_svt_mac_pcell_0
* View Name:    schematic
************************************************************************

.SUBCKT S6ALLSVTFW20W20_nand2_svt_mac_pcell TSMC_1 TSMC_2 TSMC_3 TSMC_4 TSMC_5 
+ TSMC_6 TSMC_7 
MM2 TSMC_7 TSMC_2 TSMC_5 TSMC_6 pch_svt_mac l=p_l nfin=p_nfin m=p_totalM 
MM1 TSMC_7 TSMC_1 TSMC_5 TSMC_6 pch_svt_mac l=p_l nfin=p_nfin m=p_totalM 
MM4 TSMC_8 TSMC_2 TSMC_3 TSMC_4 nch_svt_mac l=n_l nfin=n_nfin m=n_totalM 
MM3 TSMC_7 TSMC_1 TSMC_8 TSMC_4 nch_svt_mac l=n_l nfin=n_nfin m=n_totalM 
.ENDS

************************************************************************
* Library Name: tsmcN16
* Cell Name:    inv_svt_mac_pcell_1
* View Name:    schematic
************************************************************************

.SUBCKT S6ALLSVTFW20W20_inv_svt_mac_pcell TSMC_1 TSMC_2 TSMC_3 TSMC_4 TSMC_5 
+ TSMC_6 
MM1 TSMC_4 TSMC_3 TSMC_5 TSMC_6 pch_svt_mac l=p_l nfin=p_nfin m=p_totalM 
MM2 TSMC_4 TSMC_3 TSMC_1 TSMC_2 nch_svt_mac l=n_l nfin=n_nfin m=n_totalM 
.ENDS

************************************************************************
* Library Name: tsmcN16
* Cell Name:    nor2_svt_mac_pcell_2
* View Name:    schematic
************************************************************************

.SUBCKT S6ALLSVTFW20W20_nor2_svt_mac_pcell TSMC_1 TSMC_2 TSMC_3 TSMC_4 TSMC_5 
+ TSMC_6 TSMC_7 
MM2 TSMC_7 TSMC_2 TSMC_8 TSMC_6 pch_svt_mac l=p_l nfin=p_nfin m=p_totalM 
MM1 TSMC_8 TSMC_1 TSMC_5 TSMC_6 pch_svt_mac l=p_l nfin=p_nfin m=p_totalM 
MM4 TSMC_7 TSMC_2 TSMC_3 TSMC_4 nch_svt_mac l=n_l nfin=n_nfin m=n_totalM 
MM3 TSMC_7 TSMC_1 TSMC_3 TSMC_4 nch_svt_mac l=n_l nfin=n_nfin m=n_totalM 
.ENDS

************************************************************************
* Library Name: TS16FF2PRF
* Cell Name:    RF_WCTD
* View Name:    schematic
************************************************************************

.SUBCKT S6ALLSVTFW20W20_RF_WCTD VDD VDDI VSS TSMC_1 TSMC_2 TSMC_3 TSMC_4 
XI76 TSMC_5 TSMC_6 VSS VSS VDDI VDD TSMC_3 
+ S6ALLSVTFW20W20_nand2_lvt_mac_pcell n_totalM=1 n_nfin=2 n_l=0.020u p_totalM=1 
+ p_nfin=2 p_l=0.020u 
XI79 TSMC_7 TSMC_8 VSS VSS VDDI VDD TSMC_9 
+ S6ALLSVTFW20W20_nand2_lvt_mac_pcell n_totalM=1 n_nfin=2 n_l=0.020u p_totalM=1 
+ p_nfin=2 p_l=0.020u 
XI66 TSMC_1 TSMC_2 VSS VSS VDDI VDD TSMC_10 
+ S6ALLSVTFW20W20_nand2_lvt_mac_pcell n_totalM=1 n_nfin=2 n_l=0.020u p_totalM=1 
+ p_nfin=2 p_l=0.020u 
XI91 TSMC_2 TSMC_11 VSS VSS VDDI VDD TSMC_8 
+ S6ALLSVTFW20W20_nand2_lvt_mac_pcell n_totalM=1 n_nfin=2 n_l=0.020u p_totalM=1 
+ p_nfin=2 p_l=0.020u 
XI86 TSMC_7 TSMC_12 VSS VSS VDDI VDD TSMC_13 
+ S6ALLSVTFW20W20_nand2_lvt_mac_pcell n_totalM=1 n_nfin=2 n_l=0.020u p_totalM=1 
+ p_nfin=2 p_l=0.020u 
XI78 TSMC_14 TSMC_7 VSS VSS VDDI VDD TSMC_6 
+ S6ALLSVTFW20W20_nand2_lvt_mac_pcell n_totalM=1 n_nfin=2 n_l=0.020u p_totalM=1 
+ p_nfin=2 p_l=0.020u 
XI90 TSMC_1 TSMC_15 VSS VSS VDDI VDD TSMC_14 
+ S6ALLSVTFW20W20_nand2_lvt_mac_pcell n_totalM=1 n_nfin=2 n_l=0.020u p_totalM=1 
+ p_nfin=2 p_l=0.020u 
XI152 VSS VSS TSMC_9 TSMC_16 VDDI VDD S6ALLSVTFW20W20_inv_lvt_mac_pcell 
+ n_totalM=1 n_nfin=2 n_l=0.020u p_totalM=1 p_nfin=2 p_l=0.020u 
XI155 VSS VSS TSMC_17 TSMC_11 VDDI VDD 
+ S6ALLSVTFW20W20_inv_lvt_mac_pcell n_totalM=1 n_nfin=2 n_l=0.020u p_totalM=1 
+ p_nfin=2 p_l=0.020u 
XI153 VSS VSS TSMC_16 TSMC_15 VDDI VDD 
+ S6ALLSVTFW20W20_inv_lvt_mac_pcell n_totalM=1 n_nfin=2 n_l=0.020u p_totalM=1 
+ p_nfin=2 p_l=0.020u 
XI145 VSS VSS TSMC_4 TSMC_7 VDDI VDD S6ALLSVTFW20W20_inv_svt_mac_pcell 
+ n_totalM=1 n_nfin=2 n_l=0.020u p_totalM=1 p_nfin=2 p_l=0.020u 
XI65 VSS VSS TSMC_18 TSMC_5 VDDI VDD S6ALLSVTFW20W20_inv_lvt_mac_pcell 
+ n_totalM=1 n_nfin=2 n_l=0.020u p_totalM=1 p_nfin=2 p_l=0.020u 
XI147 VSS VSS TSMC_5 TSMC_19 VDDI VDD S6ALLSVTFW20W20_inv_lvt_mac_pcell 
+ n_totalM=1 n_nfin=2 n_l=0.020u p_totalM=1 p_nfin=2 p_l=0.020u 
XI146 VSS VSS TSMC_5 TSMC_20 VDDI VDD S6ALLSVTFW20W20_inv_lvt_mac_pcell 
+ n_totalM=1 n_nfin=2 n_l=0.020u p_totalM=1 p_nfin=2 p_l=0.020u 
XI143 VSS VSS TSMC_21 TSMC_22 VDDI VDD 
+ S6ALLSVTFW20W20_inv_svt_mac_pcell n_totalM=1 n_nfin=2 n_l=0.020u p_totalM=1 
+ p_nfin=2 p_l=0.020u 
XI159 VSS VSS TSMC_13 TSMC_23 VDDI VDD 
+ S6ALLSVTFW20W20_inv_lvt_mac_pcell n_totalM=1 n_nfin=2 n_l=0.020u p_totalM=1 
+ p_nfin=2 p_l=0.020u 
XI154 VSS VSS TSMC_22 TSMC_17 VDDI VDD 
+ S6ALLSVTFW20W20_inv_lvt_mac_pcell n_totalM=1 n_nfin=2 n_l=0.020u p_totalM=1 
+ p_nfin=2 p_l=0.020u 
XI10 VSS VSS TSMC_24 TSMC_25 VDDI VDD S6ALLSVTFW20W20_inv_lvt_mac_pcell 
+ n_totalM=1 n_nfin=2 n_l=0.020u p_totalM=1 p_nfin=2 p_l=0.020u 
XI89 VSS VSS TSMC_10 TSMC_12 VDDI VDD S6ALLSVTFW20W20_inv_lvt_mac_pcell 
+ n_totalM=1 n_nfin=2 n_l=0.020u p_totalM=1 p_nfin=2 p_l=0.020u 
XI160 VSS VSS TSMC_13 TSMC_24 VDDI VDD 
+ S6ALLSVTFW20W20_inv_lvt_mac_pcell n_totalM=1 n_nfin=2 n_l=0.020u p_totalM=1 
+ p_nfin=2 p_l=0.020u 
XI144 VSS VSS TSMC_25 TSMC_21 VDDI VDD 
+ S6ALLSVTFW20W20_inv_lvt_mac_pcell n_totalM=1 n_nfin=2 n_l=0.020u p_totalM=1 
+ p_nfin=2 p_l=0.020u 
XI64 TSMC_2 TSMC_1 VSS VSS VDDI VDD TSMC_18 
+ S6ALLSVTFW20W20_nor2_lvt_mac_pcell n_totalM=1 n_nfin=2 n_l=0.020u p_totalM=1 
+ p_nfin=2 p_l=0.020u 
.ENDS

************************************************************************
* Library Name: TS16FF2PRF
* Cell Name:    RF_WRTRKEN
* View Name:    schematic
************************************************************************

.SUBCKT S6ALLSVTFW20W20_RF_WRTRKEN TSMC_1 VDD VDDI VSS TSMC_2 TSMC_3 TSMC_4 
XI19<0> TSMC_2 TSMC_5 VSS VSS VDDI VDD TSMC_1 
+ S6ALLSVTFW20W20_nand2_lvt_mac_pcell n_totalM=1 n_nfin=2 n_l=0.020u p_totalM=1 
+ p_nfin=2 p_l=0.020u 
XI19<1> TSMC_2 TSMC_5 VSS VSS VDDI VDD TSMC_1 
+ S6ALLSVTFW20W20_nand2_lvt_mac_pcell n_totalM=1 n_nfin=2 n_l=0.020u p_totalM=1 
+ p_nfin=2 p_l=0.020u 
XI14 TSMC_3 TSMC_4 VSS VSS VDDI VDD TSMC_5 
+ S6ALLSVTFW20W20_nor2_lvt_mac_pcell n_totalM=1 n_nfin=2 n_l=0.020u p_totalM=1 
+ p_nfin=2 p_l=0.020u 
.ENDS

************************************************************************
* Library Name: TS16FF2PRF
* Cell Name:    RF_W1TRKWR
* View Name:    schematic
************************************************************************

.SUBCKT S6ALLSVTFW20W20_RF_W1TRKWR TSMC_1 TSMC_2 TSMC_3 VDD VDDI VSS TSMC_4 
+ TSMC_5 
XXwctd VDD VDDI VSS TSMC_1 TSMC_2 TSMC_6 TSMC_4 S6ALLSVTFW20W20_RF_WCTD 
XXrdtrken TSMC_3 VDD VDDI VSS TSMC_6 TSMC_4 TSMC_5 
+ S6ALLSVTFW20W20_RF_WRTRKEN 
.ENDS

************************************************************************
* Library Name: TS16FF2PRF
* Cell Name:    RF_WREFMUX
* View Name:    schematic
************************************************************************

.SUBCKT S6ALLSVTFW20W20_RF_WREFMUX TSMC_1 VDD VDDI VSS TSMC_2 TSMC_3 TSMC_4 
+ TSMC_5 TSMC_6 
MM10 TSMC_7 TSMC_1 VDD VDD pch_svt_mac l=0.020u nfin=2 m=1 
MM6 TSMC_4 TSMC_3 VDDI VDD pch_svt_mac l=0.020u nfin=2 m=1 
MM1 TSMC_4 TSMC_6 TSMC_8 VDD pch_svt_mac l=0.020u nfin=2 m=1 
MM13 TSMC_8 TSMC_7 VDDI VDD pch_svt_mac l=0.020u nfin=2 m=1 
MM3 TSMC_3 TSMC_6 TSMC_9 VDD pch_svt_mac l=0.020u nfin=2 m=1 
MM12 TSMC_9 TSMC_1 VDDI VDD pch_svt_mac l=0.020u nfin=2 m=1 
MM2 TSMC_3 TSMC_5 TSMC_4 VDD pch_svt_mac l=0.020u nfin=3 m=2 
MM9 TSMC_3 TSMC_5 VDDI VDD pch_svt_mac l=0.020u nfin=6 m=2 
MM8 TSMC_4 TSMC_5 VDDI VDD pch_svt_mac l=0.020u nfin=6 m=2 
MM0 TSMC_3 TSMC_4 VDDI VDD pch_svt_mac l=0.020u nfin=2 m=1 
MM4 TSMC_1 TSMC_7 VSS VSS nch_svt_mac l=0.020u nfin=2 m=1 
MM7 TSMC_3 TSMC_10 TSMC_2 VSS nch_svt_mac l=0.020u nfin=6 m=2 
MM5 TSMC_4 TSMC_11 TSMC_2 VSS nch_svt_mac l=0.020u nfin=6 m=2 
XI21 TSMC_6 TSMC_7 TSMC_2 VSS VDDI VDD TSMC_10 
+ S6ALLSVTFW20W20_nor2_svt_mac_pcell n_totalM=1 n_nfin=2 n_l=0.020u p_totalM=1 
+ p_nfin=4 p_l=0.020u 
XI19 TSMC_6 TSMC_1 TSMC_2 VSS VDDI VDD TSMC_11 
+ S6ALLSVTFW20W20_nor2_svt_mac_pcell n_totalM=1 n_nfin=2 n_l=0.020u p_totalM=1 
+ p_nfin=4 p_l=0.020u 
.ENDS

************************************************************************
* Library Name: TS16FF2PRF
* Cell Name:    RF_TRKGIOWR
* View Name:    schematic
************************************************************************

.SUBCKT S6ALLSVTFW20W20_RF_TRKGIOWR TSMC_1 TSMC_2 TSMC_3 TSMC_4 TSMC_5 TSMC_6 
+ TSMC_7 TSMC_8 TSMC_9 TSMC_10 TSMC_11 VDD VDDI VSS TSMC_12 TSMC_13 TSMC_14 
+ TSMC_15 TSMC_16 TSMC_17 TSMC_18 TSMC_19 TSMC_20 TSMC_21 TSMC_22 TSMC_23 
+ TSMC_24 TSMC_25 TSMC_26 TSMC_27 TSMC_28 
XXwrst TSMC_15 TSMC_16 TSMC_20 VDD VDDI VSS TSMC_17 TSMC_29 
+ S6ALLSVTFW20W20_RF_W1TRKWR 
XXwrefmux TSMC_11 VDD VDDI VSS VSS TSMC_12 TSMC_14 TSMC_30 TSMC_29 
+ S6ALLSVTFW20W20_RF_WREFMUX 
XI21 VSS VSS TSMC_19 TSMC_29 VDDI VDD S6ALLSVTFW20W20_inv_svt_mac_pcell 
+ n_totalM=1 n_nfin=2 n_l=0.020u p_totalM=1 p_nfin=2 p_l=0.020u 
XI22 VSS VSS TSMC_29 TSMC_30 VDD VDD S6ALLSVTFW20W20_inv_svt_mac_pcell 
+ n_totalM=1 n_nfin=5 n_l=0.020u p_totalM=1 p_nfin=7 p_l=0.020u 
.ENDS

************************************************************************
* Library Name: TS16FF2PRF
* Cell Name:    RF_WMUX
* View Name:    schematic
************************************************************************

.SUBCKT S6ALLSVTFW20W20_RF_WMUX TSMC_1 TSMC_2 VDD VDDI VSS TSMC_3 TSMC_4 TSMC_5 
+ TSMC_6 TSMC_7 
MM0 TSMC_4 TSMC_8 TSMC_3 VSS nch_lvt_mac l=0.020u nfin=6 m=2 
MM2 TSMC_5 TSMC_9 TSMC_3 VSS nch_lvt_mac l=0.020u nfin=6 m=2 
MM13 TSMC_10 TSMC_1 VDDI VDD pch_svt_mac l=0.020u nfin=2 m=1 
MM5 TSMC_4 TSMC_5 VDDI VDD pch_svt_mac l=0.020u nfin=2 m=1 
MM3 TSMC_4 TSMC_11 TSMC_12 VDD pch_svt_mac l=0.020u nfin=2 m=1 
MM1 TSMC_5 TSMC_11 TSMC_10 VDD pch_svt_mac l=0.020u nfin=2 m=1 
MM9 TSMC_4 TSMC_6 VDDI VDD pch_svt_mac l=0.020u nfin=6 m=2 
MM4 TSMC_5 TSMC_6 VDDI VDD pch_svt_mac l=0.020u nfin=6 m=2 
MM10 TSMC_4 TSMC_6 TSMC_5 VDD pch_svt_mac l=0.020u nfin=3 m=2 
MM6 TSMC_5 TSMC_4 VDDI VDD pch_svt_mac l=0.020u nfin=2 m=1 
MM12 TSMC_12 TSMC_2 VDDI VDD pch_svt_mac l=0.020u nfin=2 m=1 
XI23 VSS VSS TSMC_7 TSMC_11 VDDI VDD S6ALLSVTFW20W20_inv_svt_mac_pcell 
+ n_totalM=1 n_nfin=2 n_l=0.020u p_totalM=1 p_nfin=2 p_l=0.020u 
XI14 TSMC_11 TSMC_2 TSMC_3 VSS VDDI VDD TSMC_9 
+ S6ALLSVTFW20W20_nor2_svt_mac_pcell n_totalM=1 n_nfin=2 n_l=0.020u p_totalM=1 
+ p_nfin=4 p_l=0.020u 
XI15 TSMC_11 TSMC_1 TSMC_3 VSS VDDI VDD TSMC_8 
+ S6ALLSVTFW20W20_nor2_svt_mac_pcell n_totalM=1 n_nfin=2 n_l=0.020u p_totalM=1 
+ p_nfin=4 p_l=0.020u 
.ENDS

************************************************************************
* Library Name: TS16FF2PRF
* Cell Name:    RF_TRI_W3L2M1
* View Name:    schematic
************************************************************************

.SUBCKT S6ALLSVTFW20W20_RF_TRI_W3L2M1 TSMC_1 TSMC_2 TSMC_3 TSMC_4 TSMC_5 TSMC_6 
+ TSMC_7 TSMC_8 
MM4 TSMC_9 TSMC_7 TSMC_4 TSMC_5 pch_svt_mac l=0.020u nfin=3 m=1 
MM5 TSMC_8 TSMC_1 TSMC_9 TSMC_5 pch_svt_mac l=0.020u nfin=3 m=1 
MM6 TSMC_10 TSMC_6 TSMC_2 TSMC_3 nch_svt_mac l=0.020u nfin=3 m=1 
MM3 TSMC_8 TSMC_1 TSMC_10 TSMC_3 nch_svt_mac l=0.020u nfin=3 m=1 
.ENDS

************************************************************************
* Library Name: TS16FF2PRF
* Cell Name:    RF_TRI_W2L2M1
* View Name:    schematic
************************************************************************

.SUBCKT S6ALLSVTFW20W20_RF_TRI_W2L2M1 TSMC_1 TSMC_2 TSMC_3 TSMC_4 TSMC_5 TSMC_6 
+ TSMC_7 TSMC_8 
MM4 TSMC_9 TSMC_7 TSMC_4 TSMC_5 pch_svt_mac l=0.020u nfin=2 m=1 
MM5 TSMC_8 TSMC_1 TSMC_9 TSMC_5 pch_svt_mac l=0.020u nfin=2 m=1 
MM6 TSMC_10 TSMC_6 TSMC_2 TSMC_3 nch_svt_mac l=0.020u nfin=2 m=1 
MM3 TSMC_8 TSMC_1 TSMC_10 TSMC_3 nch_svt_mac l=0.020u nfin=2 m=1 
.ENDS

************************************************************************
* Library Name: TS16FF2PRF
* Cell Name:    RF_DIN
* View Name:    schematic
************************************************************************

.SUBCKT S6ALLSVTFW20W20_RF_DIN TSMC_1 TSMC_2 TSMC_3 TSMC_4 TSMC_5 TSMC_6 VDD 
+ VDDI VSS TSMC_7 
XI16 TSMC_8 VSS VSS VDDI VDD TSMC_4 TSMC_5 TSMC_9 
+ S6ALLSVTFW20W20_RF_TRI_W3L2M1 
XI90 TSMC_10 VSS VSS VDDI VDD TSMC_4 TSMC_5 TSMC_11 
+ S6ALLSVTFW20W20_RF_TRI_W3L2M1 
XI15 TSMC_12 TSMC_13 VSS VSS VDDI VDD TSMC_8 
+ S6ALLSVTFW20W20_nand2_svt_mac_pcell n_totalM=1 n_nfin=2 n_l=0.020u p_totalM=1 
+ p_nfin=2 p_l=0.020u 
XI78 TSMC_12 TSMC_14 VSS VSS VDDI VDD TSMC_10 
+ S6ALLSVTFW20W20_nand2_svt_mac_pcell n_totalM=1 n_nfin=2 n_l=0.020u p_totalM=1 
+ p_nfin=2 p_l=0.020u 
XI63 VSS VSS TSMC_15 TSMC_12 VDDI VDD S6ALLSVTFW20W20_inv_svt_mac_pcell 
+ n_totalM=1 n_nfin=2 n_l=0.020u p_totalM=1 p_nfin=2 p_l=0.020u 
XI59 VSS VSS TSMC_16 TSMC_14 VDDI VDD S6ALLSVTFW20W20_inv_svt_mac_pcell 
+ n_totalM=1 n_nfin=2 n_l=0.020u p_totalM=1 p_nfin=2 p_l=0.020u 
XI61 VSS VSS TSMC_7 TSMC_17 VDDI VDD S6ALLSVTFW20W20_inv_svt_mac_pcell 
+ n_totalM=1 n_nfin=2 n_l=0.020u p_totalM=1 p_nfin=2 p_l=0.020u 
XI83 VSS VSS TSMC_9 TSMC_3 VDDI VDD S6ALLSVTFW20W20_inv_svt_mac_pcell 
+ n_totalM=2 n_nfin=2 n_l=0.020u p_totalM=2 p_nfin=2 p_l=0.020u 
XI92 VSS VSS TSMC_11 TSMC_2 VDDI VDD S6ALLSVTFW20W20_inv_svt_mac_pcell 
+ n_totalM=2 n_nfin=2 n_l=0.020u p_totalM=2 p_nfin=2 p_l=0.020u 
XI99 VSS VSS TSMC_1 TSMC_16 VDDI VDD S6ALLSVTFW20W20_inv_svt_mac_pcell 
+ n_totalM=1 n_nfin=2 n_l=0.020u p_totalM=1 p_nfin=2 p_l=0.020u 
XI62 VSS VSS TSMC_17 TSMC_15 VDDI VDD S6ALLSVTFW20W20_inv_svt_mac_pcell 
+ n_totalM=1 n_nfin=2 n_l=0.020u p_totalM=1 p_nfin=2 p_l=0.020u 
XI60 VSS VSS TSMC_14 TSMC_13 VDDI VDD S6ALLSVTFW20W20_inv_svt_mac_pcell 
+ n_totalM=1 n_nfin=2 n_l=0.020u p_totalM=1 p_nfin=2 p_l=0.020u 
XI94 TSMC_2 VSS VSS VDDI VDD TSMC_5 TSMC_4 TSMC_11 
+ S6ALLSVTFW20W20_RF_TRI_W2L2M1 
XI17 TSMC_3 VSS VSS VDDI VDD TSMC_5 TSMC_4 TSMC_9 
+ S6ALLSVTFW20W20_RF_TRI_W2L2M1 
.ENDS

************************************************************************
* Library Name: TS16FF2PRF
* Cell Name:    RF_DOLATCHM48
* View Name:    schematic
************************************************************************

.SUBCKT S6ALLSVTFW20W20_RF_DOLATCHM48 TSMC_1 TSMC_2 TSMC_3 TSMC_4 TSMC_5 TSMC_6 
+ VDD VDDI VSS TSMC_7 TSMC_8 
MM0 TSMC_3 TSMC_4 VDD VDD pch_svt_mac l=0.020u nfin=3 m=1 
XI3 VSS VSS TSMC_3 TSMC_1 VDDI VDD S6ALLSVTFW20W20_inv_svt_mac_pcell 
+ n_totalM=3 n_nfin=5 n_l=0.020u p_totalM=3 p_nfin=5 p_l=0.020u 
XI7 TSMC_2 VSS VSS VDDI VDD TSMC_5 TSMC_6 TSMC_3 
+ S6ALLSVTFW20W20_RF_TRI_W3L2M1 
XI5 TSMC_3 VSS VSS VDDI VDD TSMC_7 TSMC_8 TSMC_2 
+ S6ALLSVTFW20W20_RF_TRI_W3L2M1 
.ENDS

************************************************************************
* Library Name: TS16FF2PRF
* Cell Name:    RF_DINM4
* View Name:    schematic
************************************************************************

.SUBCKT S6ALLSVTFW20W20_RF_DINM4 TSMC_1 TSMC_2 TSMC_3 TSMC_4 VDD VDDI VSS 
+ TSMC_5 TSMC_6 TSMC_7 TSMC_8 TSMC_9 TSMC_10 TSMC_11 TSMC_12 TSMC_13 TSMC_14 
+ TSMC_15 TSMC_16 TSMC_17 TSMC_18 TSMC_19 TSMC_20 TSMC_21 TSMC_22 TSMC_23 
XI19 VSS VSS TSMC_18 TSMC_24 VDDI VDD S6ALLSVTFW20W20_inv_svt_mac_pcell 
+ n_totalM=1 n_nfin=2 n_l=0.020u p_totalM=1 p_nfin=2 p_l=0.020u 
XI20 VSS VSS TSMC_24 TSMC_25 VDDI VDD S6ALLSVTFW20W20_inv_svt_mac_pcell 
+ n_totalM=1 n_nfin=2 n_l=0.020u p_totalM=1 p_nfin=2 p_l=0.020u 
XI18<1> VSS VSS TSMC_19 TSMC_26 VDDI VDD 
+ S6ALLSVTFW20W20_inv_svt_mac_pcell n_totalM=1 n_nfin=2 n_l=0.020u p_totalM=1 
+ p_nfin=2 p_l=0.020u 
XI18<0> VSS VSS TSMC_19 TSMC_27 VDDI VDD 
+ S6ALLSVTFW20W20_inv_svt_mac_pcell n_totalM=1 n_nfin=2 n_l=0.020u p_totalM=1 
+ p_nfin=2 p_l=0.020u 
XI15<1> VSS VSS TSMC_26 TSMC_28 VDD VDD 
+ S6ALLSVTFW20W20_inv_svt_mac_pcell n_totalM=1 n_nfin=5 n_l=0.020u p_totalM=1 
+ p_nfin=7 p_l=0.020u 
XI15<0> VSS VSS TSMC_27 TSMC_29 VDD VDD 
+ S6ALLSVTFW20W20_inv_svt_mac_pcell n_totalM=1 n_nfin=5 n_l=0.020u p_totalM=1 
+ p_nfin=7 p_l=0.020u 
XXdltch TSMC_1 TSMC_2 TSMC_3 TSMC_24 TSMC_25 TSMC_4 VDD VDDI VSS TSMC_17 
+ S6ALLSVTFW20W20_RF_DIN 
XXwmux<2> TSMC_2 TSMC_3 VDD VDDI VSS TSMC_6 TSMC_10 TSMC_14 TSMC_28 
+ TSMC_21 S6ALLSVTFW20W20_RF_WMUX 
XXwmux<1> TSMC_2 TSMC_3 VDD VDDI VSS TSMC_7 TSMC_11 TSMC_15 TSMC_29 
+ TSMC_22 S6ALLSVTFW20W20_RF_WMUX 
XXwmux<0> TSMC_2 TSMC_3 VDD VDDI VSS TSMC_8 TSMC_12 TSMC_16 TSMC_29 
+ TSMC_23 S6ALLSVTFW20W20_RF_WMUX 
XXwmux_f TSMC_2 TSMC_3 VDD VDDI VSS TSMC_5 TSMC_9 TSMC_13 TSMC_28 
+ TSMC_20 S6ALLSVTFW20W20_RF_WMUX 
.ENDS

************************************************************************
* Library Name: TS16FF2PRF
* Cell Name:    TRI_M4
* View Name:    schematic
************************************************************************

.SUBCKT S6ALLSVTFW20W20_TRI_M4 TSMC_1 TSMC_2 TSMC_3 VDD VDDI VSS TSMC_4 
MM3 TSMC_4 TSMC_3 TSMC_5 VDD pch_lvt_mac l=0.020u nfin=4 m=3 
MM0 TSMC_5 TSMC_1 VDDI VDD pch_lvt_mac l=0.020u nfin=4 m=3 
MM1 TSMC_4 TSMC_2 TSMC_6 VSS nch_svt_mac l=0.020u nfin=4 m=2 
MM2 TSMC_6 TSMC_1 VSS VSS nch_svt_mac l=0.020u nfin=4 m=2 
.ENDS

************************************************************************
* Library Name: TS16FF2PRF
* Cell Name:    RF_RMUX4
* View Name:    schematic
************************************************************************

.SUBCKT S6ALLSVTFW20W20_RF_RMUX4 TSMC_1 TSMC_2 TSMC_3 TSMC_4 TSMC_5 VDD VDDI 
+ VSS 
XI9 TSMC_1 TSMC_5 TSMC_4 VDD VDDI VSS TSMC_2 S6ALLSVTFW20W20_TRI_M4 
MM1 TSMC_1 TSMC_3 VDDI VDD pch_svt_mac l=0.020u nfin=4 m=3 
MM5 TSMC_6 TSMC_7 VDDI VDD pch_svt_mac l=0.020u nfin=2 m=1 
MM0 TSMC_1 TSMC_7 TSMC_6 VDD pch_svt_mac l=0.020u nfin=2 m=1 
XI1 VSS VSS TSMC_1 TSMC_7 VDDI VDD S6ALLSVTFW20W20_inv_svt_mac_pcell 
+ n_totalM=1 n_nfin=2 n_l=0.020u p_totalM=1 p_nfin=2 p_l=0.020u 
MM2 TSMC_1 TSMC_7 TSMC_8 VSS nch_svt_mac l=0.020u nfin=2 m=1 
MM4 TSMC_8 TSMC_3 VSS VSS nch_svt_mac l=0.020u nfin=2 m=1 
.ENDS

************************************************************************
* Library Name: TS16FF2PRF
* Cell Name:    RF_DOUTM4
* View Name:    schematic
************************************************************************

.SUBCKT S6ALLSVTFW20W20_RF_DOUTM4 TSMC_1 TSMC_2 TSMC_3 TSMC_4 TSMC_5 TSMC_6 
+ TSMC_7 TSMC_8 TSMC_9 TSMC_10 TSMC_11 TSMC_12 VDD VDDI VSS TSMC_13 TSMC_14 
MM4 TSMC_15 TSMC_16 VDD VDD pch_lvt_mac l=0.020u nfin=2 m=1 
MM7 TSMC_15 TSMC_6 VDD VDD pch_lvt_mac l=0.020u nfin=2 m=1 
MM1 TSMC_16 TSMC_12 VDD VDD pch_lvt_mac l=0.020u nfin=2 m=1 
MM0 TSMC_16 TSMC_13 VDD VDD pch_lvt_mac l=0.020u nfin=2 m=1 
MM6 TSMC_15 TSMC_6 TSMC_17 VSS nch_svt_mac l=0.020u nfin=2 m=1 
MM2 TSMC_16 TSMC_13 TSMC_18 VSS nch_svt_mac l=0.020u nfin=2 m=1 
MM3 TSMC_18 TSMC_12 VSS VSS nch_svt_mac l=0.020u nfin=2 m=1 
MM5 TSMC_17 TSMC_16 VSS VSS nch_svt_mac l=0.020u nfin=2 m=1 
XXrmux<2> TSMC_3 TSMC_19 TSMC_20 TSMC_21 TSMC_22 VDD VDDI VSS 
+ S6ALLSVTFW20W20_RF_RMUX4 
XXrmux<1> TSMC_4 TSMC_19 TSMC_20 TSMC_23 TSMC_24 VDD VDDI VSS 
+ S6ALLSVTFW20W20_RF_RMUX4 
XXrmux<0> TSMC_5 TSMC_19 TSMC_20 TSMC_25 TSMC_26 VDD VDDI VSS 
+ S6ALLSVTFW20W20_RF_RMUX4 
XXrmux_f TSMC_2 TSMC_19 TSMC_20 TSMC_27 TSMC_28 VDD VDDI VSS 
+ S6ALLSVTFW20W20_RF_RMUX4 
XXqltch TSMC_7 TSMC_1 TSMC_19 TSMC_6 TSMC_29 TSMC_15 VDD VDDI VSS TSMC_13 
+ TSMC_14 S6ALLSVTFW20W20_RF_DOLATCHM48 
XI27<3> VSS VSS TSMC_28 TSMC_27 VDD VDD 
+ S6ALLSVTFW20W20_inv_svt_mac_pcell n_totalM=1 n_nfin=2 n_l=0.020u p_totalM=1 
+ p_nfin=3 p_l=0.020u 
XI27<2> VSS VSS TSMC_22 TSMC_21 VDD VDD 
+ S6ALLSVTFW20W20_inv_svt_mac_pcell n_totalM=1 n_nfin=2 n_l=0.020u p_totalM=1 
+ p_nfin=3 p_l=0.020u 
XI27<1> VSS VSS TSMC_24 TSMC_23 VDD VDD 
+ S6ALLSVTFW20W20_inv_svt_mac_pcell n_totalM=1 n_nfin=2 n_l=0.020u p_totalM=1 
+ p_nfin=3 p_l=0.020u 
XI27<0> VSS VSS TSMC_26 TSMC_25 VDD VDD 
+ S6ALLSVTFW20W20_inv_svt_mac_pcell n_totalM=1 n_nfin=2 n_l=0.020u p_totalM=1 
+ p_nfin=3 p_l=0.020u 
XI10 VSS VSS TSMC_15 TSMC_30 VDDI VDD S6ALLSVTFW20W20_inv_svt_mac_pcell 
+ n_totalM=1 n_nfin=2 n_l=0.020u p_totalM=1 p_nfin=2 p_l=0.020u 
XI13 VSS VSS TSMC_15 TSMC_29 VDDI VDD S6ALLSVTFW20W20_inv_svt_mac_pcell 
+ n_totalM=1 n_nfin=2 n_l=0.020u p_totalM=1 p_nfin=2 p_l=0.020u 
XI29 VSS VSS TSMC_30 TSMC_20 VDD VDD S6ALLSVTFW20W20_inv_svt_mac_pcell 
+ n_totalM=2 n_nfin=4 n_l=0.020u p_totalM=2 p_nfin=5 p_l=0.020u 
XI28<3> TSMC_8 TSMC_16 VSS VSS VDD VDD TSMC_28 
+ S6ALLSVTFW20W20_nor2_svt_mac_pcell n_totalM=1 n_nfin=2 n_l=0.020u p_totalM=1 
+ p_nfin=3 p_l=0.020u 
XI28<2> TSMC_9 TSMC_16 VSS VSS VDD VDD TSMC_22 
+ S6ALLSVTFW20W20_nor2_svt_mac_pcell n_totalM=1 n_nfin=2 n_l=0.020u p_totalM=1 
+ p_nfin=3 p_l=0.020u 
XI28<1> TSMC_10 TSMC_16 VSS VSS VDD VDD TSMC_24 
+ S6ALLSVTFW20W20_nor2_svt_mac_pcell n_totalM=1 n_nfin=2 n_l=0.020u p_totalM=1 
+ p_nfin=3 p_l=0.020u 
XI28<0> TSMC_11 TSMC_16 VSS VSS VDD VDD TSMC_26 
+ S6ALLSVTFW20W20_nor2_svt_mac_pcell n_totalM=1 n_nfin=2 n_l=0.020u p_totalM=1 
+ p_nfin=3 p_l=0.020u 
.ENDS

************************************************************************
* Library Name: TS16FF2PRF
* Cell Name:    RF_GIOM4
* View Name:    schematic
************************************************************************

.SUBCKT S6ALLSVTFW20W20_RF_GIOM4 TSMC_1 TSMC_2 TSMC_3 TSMC_4 TSMC_5 TSMC_6 
+ TSMC_7 TSMC_8 TSMC_9 TSMC_10 TSMC_11 TSMC_12 TSMC_13 TSMC_14 TSMC_15 TSMC_16 
+ VDD VDDI VSS TSMC_17 TSMC_18 TSMC_19 TSMC_20 TSMC_21 TSMC_22 TSMC_23 TSMC_24 
+ TSMC_25 TSMC_26 TSMC_27 TSMC_28 TSMC_29 TSMC_30 TSMC_31 TSMC_32 TSMC_33 
+ TSMC_34 
XXdin TSMC_1 TSMC_7 TSMC_8 TSMC_16 VDD VDDI VSS TSMC_17 TSMC_17 TSMC_17 TSMC_17 
+ TSMC_20 TSMC_21 TSMC_22 TSMC_23 TSMC_24 TSMC_25 TSMC_26 TSMC_27 
+ TSMC_28 TSMC_29 TSMC_30 TSMC_31 TSMC_32 TSMC_33 TSMC_34 
+ S6ALLSVTFW20W20_RF_DINM4 
XXdout TSMC_2 TSMC_3 TSMC_4 TSMC_5 TSMC_6 TSMC_35 TSMC_10 TSMC_11 TSMC_12 
+ TSMC_13 TSMC_14 TSMC_15 VDD VDDI VSS TSMC_18 TSMC_19 
+ S6ALLSVTFW20W20_RF_DOUTM4 
XI26 VSS VSS TSMC_9 TSMC_35 VDD VDD S6ALLSVTFW20W20_inv_svt_mac_pcell 
+ n_totalM=1 n_nfin=3 n_l=0.020u p_totalM=1 p_nfin=3 p_l=0.020u 
.ENDS

************************************************************************
* Library Name: tsmcN16
* Cell Name:    nand3_svt_mac_pcell_3
* View Name:    schematic
************************************************************************

.SUBCKT S6ALLSVTFW20W20_nand3_svt_mac_pcell TSMC_1 TSMC_2 TSMC_3 TSMC_4 TSMC_5 
+ TSMC_6 TSMC_7 TSMC_8 
MM3 TSMC_8 TSMC_3 TSMC_6 TSMC_7 pch_svt_mac l=p_l nfin=p_nfin m=p_totalM 
MM2 TSMC_8 TSMC_2 TSMC_6 TSMC_7 pch_svt_mac l=p_l nfin=p_nfin m=p_totalM 
MM1 TSMC_8 TSMC_1 TSMC_6 TSMC_7 pch_svt_mac l=p_l nfin=p_nfin m=p_totalM 
MM6 TSMC_9 TSMC_3 TSMC_4 TSMC_5 nch_svt_mac l=n_l nfin=n_nfin 
+ m=n_totalM 
MM5 TSMC_10 TSMC_2 TSMC_9 TSMC_5 nch_svt_mac l=n_l nfin=n_nfin 
+ m=n_totalM 
MM4 TSMC_8 TSMC_1 TSMC_10 TSMC_5 nch_svt_mac l=n_l nfin=n_nfin 
+ m=n_totalM 
.ENDS

************************************************************************
* Library Name: TS16FF2PRF
* Cell Name:    RF_RLCTRL_DK
* View Name:    schematic
************************************************************************

.SUBCKT S6ALLSVTFW20W20_RF_RLCTRL_DK TSMC_1 TSMC_2 TSMC_3 TSMC_4 TSMC_5 TSMC_6 
+ TSMC_7 TSMC_8 TSMC_9 TSMC_10 TSMC_11 TSMC_12 TSMC_13 TSMC_14 TSMC_15 TSMC_16 
+ TSMC_17 TSMC_18 TSMC_19 TSMC_20 TSMC_21 TSMC_22 TSMC_23 TSMC_24 TSMC_25 
+ TSMC_26 VDD VDDI VSS TSMC_27 
MM12 TSMC_28 TSMC_29 TSMC_30 VSS nch_ulvt_mac l=0.020u nfin=2 m=3 
MM11 TSMC_30 TSMC_31 VSS VSS nch_ulvt_mac l=0.020u nfin=2 m=3 
MM7 TSMC_32 TSMC_31 VSS VSS nch_ulvt_mac l=0.020u nfin=2 m=3 
MM6 TSMC_33 TSMC_34 TSMC_32 VSS nch_ulvt_mac l=0.020u nfin=2 m=3 
MM5 TSMC_33 TSMC_35 TSMC_32 VSS nch_ulvt_mac l=0.020u nfin=2 m=3 
MM1 TSMC_36 TSMC_31 VSS VSS nch_ulvt_mac l=0.020u nfin=8 m=16 
MM0 TSMC_36 TSMC_31 VSS VSS nch_ulvt_mac l=0.020u nfin=8 m=16 
MM8 TSMC_28 TSMC_35 TSMC_30 VSS nch_ulvt_mac l=0.020u nfin=2 m=3 
MM13 TSMC_28 TSMC_31 VDD VDD pch_ulvt_mac l=0.020u nfin=3 m=3 
MM4 TSMC_33 TSMC_31 VDD VDD pch_ulvt_mac l=0.020u nfin=3 m=3 
MM3 TSMC_33 TSMC_35 TSMC_37 VDD pch_ulvt_mac l=0.020u nfin=3 m=3 
MM2 TSMC_37 TSMC_34 VDD VDD pch_ulvt_mac l=0.020u nfin=3 m=3 
MM10 TSMC_38 TSMC_29 VDD VDD pch_ulvt_mac l=0.020u nfin=3 m=3 
MM9 TSMC_28 TSMC_35 TSMC_38 VDD pch_ulvt_mac l=0.020u nfin=3 m=3 
XI96 TSMC_36 VSS TSMC_39 TSMC_18 VDD VDD 
+ S6ALLSVTFW20W20_inv_ulvt_mac_pcell n_totalM=16 n_nfin=6 n_l=0.020u 
+ p_totalM=16 p_nfin=6 p_l=0.020u 
XI100 VSS VSS TSMC_1 TSMC_40 VDDI VDD 
+ S6ALLSVTFW20W20_inv_ulvt_mac_pcell n_totalM=2 n_nfin=4 n_l=0.020u p_totalM=2 
+ p_nfin=5 p_l=0.020u 
XI107 VSS VSS TSMC_41 TSMC_5 VDD VDD S6ALLSVTFW20W20_inv_ulvt_mac_pcell 
+ n_totalM=1 n_nfin=2 n_l=0.020u p_totalM=1 p_nfin=2 p_l=0.020u 
XI91 VSS VSS TSMC_33 TSMC_42 VDD VDD S6ALLSVTFW20W20_inv_ulvt_mac_pcell 
+ n_totalM=5 n_nfin=7 n_l=0.020u p_totalM=5 p_nfin=6 p_l=0.020u 
XI92 TSMC_36 VSS TSMC_42 TSMC_19 VDD VDD 
+ S6ALLSVTFW20W20_inv_ulvt_mac_pcell n_totalM=16 n_nfin=6 n_l=0.020u 
+ p_totalM=16 p_nfin=6 p_l=0.020u 
XI106 VSS VSS TSMC_4 TSMC_41 VDD VDD S6ALLSVTFW20W20_inv_ulvt_mac_pcell 
+ n_totalM=1 n_nfin=2 n_l=0.020u p_totalM=1 p_nfin=2 p_l=0.020u 
XI98 VSS VSS TSMC_35 TSMC_23 VDDI VDD 
+ S6ALLSVTFW20W20_inv_ulvt_mac_pcell n_totalM=14 n_nfin=5 n_l=0.020u 
+ p_totalM=14 p_nfin=5 p_l=0.020u 
XI101 VSS VSS TSMC_40 TSMC_11 VDDI VDD 
+ S6ALLSVTFW20W20_inv_ulvt_mac_pcell n_totalM=10 n_nfin=7 n_l=0.020u 
+ p_totalM=10 p_nfin=8 p_l=0.020u 
XI93_Lg16 TSMC_21 TSMC_22 TSMC_27 VSS VSS VDD VDD TSMC_35 
+ S6ALLSVTFW20W20_nand3_ulvt_mac_pcell n_totalM=4 n_nfin=7 n_l=0.020u 
+ p_totalM=4 p_nfin=2 p_l=0.020u 
XI95 TSMC_25 TSMC_26 VSS VSS VDDI VDD TSMC_34 
+ S6ALLSVTFW20W20_nor2_ulvt_mac_pcell n_totalM=1 n_nfin=2 n_l=0.020u p_totalM=1 
+ p_nfin=4 p_l=0.020u 
XI103 TSMC_28 TSMC_24 VSS VSS VDD VDD TSMC_39 
+ S6ALLSVTFW20W20_nor2_ulvt_mac_pcell n_totalM=6 n_nfin=6 n_l=0.020u p_totalM=6 
+ p_nfin=7 p_l=0.020u 
XI102 TSMC_4 TSMC_4 VSS VSS VDD VDD TSMC_31 
+ S6ALLSVTFW20W20_nor2_ulvt_mac_pcell n_totalM=1 n_nfin=2 n_l=0.020u p_totalM=1 
+ p_nfin=4 p_l=0.020u 
XI99 TSMC_2 TSMC_3 VSS VSS VDDI VDD TSMC_29 
+ S6ALLSVTFW20W20_nor2_ulvt_mac_pcell n_totalM=1 n_nfin=2 n_l=0.020u p_totalM=1 
+ p_nfin=4 p_l=0.020u 
.ENDS

************************************************************************
* Library Name: TS16FF2PRF
* Cell Name:    RF_WLCTRL
* View Name:    schematic
************************************************************************

.SUBCKT S6ALLSVTFW20W20_RF_WLCTRL VDD VDDI VSS TSMC_1 TSMC_2 TSMC_3 TSMC_4 
XI27 TSMC_1 TSMC_2 TSMC_4 VSS VSS VDD VDD TSMC_5 
+ S6ALLSVTFW20W20_nand3_svt_mac_pcell n_totalM=4 n_nfin=7 n_l=0.020u p_totalM=4 
+ p_nfin=2 p_l=0.020u 
XI28 VSS VSS TSMC_5 TSMC_3 VDDI VDD S6ALLSVTFW20W20_inv_svt_mac_pcell 
+ n_totalM=14 n_nfin=5 n_l=0.020u p_totalM=14 p_nfin=5 p_l=0.020u 
.ENDS

************************************************************************
* Library Name: TS16FF2PRF
* Cell Name:    RF_LCTRL_DK
* View Name:    schematic
************************************************************************

.SUBCKT S6ALLSVTFW20W20_RF_LCTRL_DK TSMC_1 TSMC_2 TSMC_3 TSMC_4 TSMC_5 TSMC_6 
+ TSMC_7 TSMC_8 TSMC_9 TSMC_10 TSMC_11 TSMC_12 TSMC_13 TSMC_14 TSMC_15 TSMC_16 
+ TSMC_17 TSMC_18 TSMC_19 TSMC_20 TSMC_21 TSMC_22 TSMC_23 TSMC_24 TSMC_25 
+ TSMC_26 TSMC_27 TSMC_28 TSMC_29 TSMC_30 TSMC_31 TSMC_32 TSMC_33 TSMC_34 
+ TSMC_35 TSMC_36 TSMC_37 TSMC_38 TSMC_39 TSMC_40 TSMC_41 TSMC_42 TSMC_43 
+ TSMC_44 TSMC_45 TSMC_46 TSMC_47 TSMC_48 TSMC_49 VDD VDDI VSS TSMC_50 TSMC_51 
+ TSMC_52 TSMC_53 TSMC_54 TSMC_55 TSMC_56 TSMC_57 TSMC_58 TSMC_59 TSMC_60 
+ TSMC_61 TSMC_62 TSMC_63 TSMC_64 TSMC_65 TSMC_66 TSMC_67 TSMC_68 TSMC_69 
+ TSMC_70 
MM6 TSMC_71 TSMC_46 VDD VDD pch_ulvt_mac l=0.020u nfin=2 m=1 
MM4 VDDI TSMC_46 VDDI VDD pch_ulvt_mac l=0.020u nfin=8 m=2 
MM5 VDDI TSMC_72 VDD VDD pch_svt_mac l=0.020u nfin=12 m=16 
MM1 VDDI TSMC_72 VDD VDD pch_svt_mac l=0.020u nfin=5 m=16 
MM0 VDDI TSMC_72 VDD VDD pch_svt_mac l=0.020u nfin=9 m=32 
MM2 VDDI TSMC_72 VDD VDD pch_svt_mac l=0.020u nfin=10 m=16 
XXrlctrl TSMC_1 TSMC_2 TSMC_3 TSMC_4 TSMC_5 TSMC_14 TSMC_15 TSMC_16 
+ TSMC_8 TSMC_9 TSMC_10 TSMC_11 TSMC_12 TSMC_13 TSMC_17 TSMC_18 TSMC_19 
+ TSMC_20 TSMC_21 TSMC_22 TSMC_25 TSMC_27 TSMC_28 TSMC_45 TSMC_48 TSMC_49 VDD 
+ VDDI VSS TSMC_69 S6ALLSVTFW20W20_RF_RLCTRL_DK 
XXwlctrl VDD VDDI VSS TSMC_50 TSMC_51 TSMC_52 TSMC_70 
+ S6ALLSVTFW20W20_RF_WLCTRL 
XI51 VSS VSS TSMC_73 TSMC_72 VDD VDD S6ALLSVTFW20W20_inv_svt_mac_pcell 
+ n_totalM=3 n_nfin=5 n_l=0.020u p_totalM=3 p_nfin=5 p_l=0.020u 
XI52 TSMC_24 TSMC_4 VSS VSS VDD VDD TSMC_73 
+ S6ALLSVTFW20W20_nor2_svt_mac_pcell n_totalM=1 n_nfin=2 n_l=0.020u p_totalM=1 
+ p_nfin=3 p_l=0.020u 
MM3 VSS TSMC_46 VSS VSS nch_ulvt_mac l=0.020u nfin=7 m=2 
MM7 TSMC_46 TSMC_71 VSS VSS nch_ulvt_mac l=0.020u nfin=2 m=1 
.ENDS

************************************************************************
* Library Name: TS16FF2PRF
* Cell Name:    RF_LCTRL
* View Name:    schematic
************************************************************************

.SUBCKT S6ALLSVTFW20W20_RF_LCTRL TSMC_1 TSMC_2 TSMC_3 TSMC_4 TSMC_5 TSMC_6 
+ TSMC_7 TSMC_8 TSMC_9 TSMC_10 TSMC_11 TSMC_12 TSMC_13 TSMC_14 TSMC_15 TSMC_16 
+ TSMC_17 TSMC_18 TSMC_19 TSMC_20 TSMC_21 TSMC_22 TSMC_23 TSMC_24 TSMC_25 
+ TSMC_26 TSMC_27 TSMC_28 TSMC_29 TSMC_30 TSMC_31 TSMC_32 TSMC_33 TSMC_34 
+ TSMC_35 TSMC_36 TSMC_37 TSMC_38 TSMC_39 TSMC_40 TSMC_41 TSMC_42 TSMC_43 
+ TSMC_44 TSMC_45 TSMC_46 TSMC_47 TSMC_48 TSMC_49 VDD VDDI VSS TSMC_50 TSMC_51 
+ TSMC_52 TSMC_53 TSMC_54 TSMC_55 TSMC_56 TSMC_57 TSMC_58 TSMC_59 TSMC_60 
+ TSMC_61 TSMC_62 TSMC_63 TSMC_64 TSMC_65 TSMC_66 TSMC_67 TSMC_68 TSMC_69 
+ TSMC_70 
XI152 TSMC_15 TSMC_24 VSS VSS VDDI VDD TSMC_9 
+ S6ALLSVTFW20W20_nor2_svt_mac_pcell n_totalM=2 n_nfin=12 n_l=0.020u p_totalM=2 
+ p_nfin=12 p_l=0.020u 
XI49<1> VSS VSS TSMC_18 TSMC_12 VDDI VDD 
+ S6ALLSVTFW20W20_inv_svt_mac_pcell n_totalM=1 n_nfin=3 n_l=0.020u p_totalM=1 
+ p_nfin=3 p_l=0.020u 
XI49<0> VSS VSS TSMC_19 TSMC_13 VDDI VDD 
+ S6ALLSVTFW20W20_inv_svt_mac_pcell n_totalM=1 n_nfin=3 n_l=0.020u p_totalM=1 
+ p_nfin=3 p_l=0.020u 
Xlctrl TSMC_1 TSMC_2 TSMC_3 TSMC_4 TSMC_5 TSMC_6 TSMC_7 TSMC_71 TSMC_72 